1



                                 *********************************************

                                    NUMERICAL ELECTROMAGNETICS CODE (NEC-2D)

                                 *********************************************




                                     - - - - COMMENTS - - - -


                          Example 1 :	Dipole in free space 	' Comment cards                          
                          See GetStarted.txt                                                         
                          							' End of comment                                                    




                                 - - - STRUCTURE SPECIFICATION - - -

                                     COORDINATES MUST BE INPUT IN
                                     METERS OR BE SCALED TO METERS
                                     BEFORE STRUCTURE INPUT IS ENDED


  WIRE                                                                               NO. OF    FIRST  LAST     TAG
  NO.        X1         Y1         Z1          X2         Y2         Z2      RADIUS   SEG.     SEG.   SEG.     NO.
     1    0.00000   -0.24180    0.00000     0.00000    0.24180    0.00000    0.00010      9        1     9       1
      THE STRUCTURE HAS BEEN MOVED, MOVE DATA CARD IS -
        0    0  45.00000   0.00000   0.00000   0.00000   0.00000   0.00000   1.00000
      THE STRUCTURE HAS BEEN MOVED, MOVE DATA CARD IS -
        0    0   0.00000   0.00000   0.00000   0.40000   0.00000   0.00000   1.00000
      THE STRUCTURE HAS BEEN MOVED, MOVE DATA CARD IS -
        1    2   0.00000   0.00000 120.00000   0.00000   0.00000   0.00000   1.00000

   TOTAL SEGMENTS USED=   27     NO. SEG. IN A SYMMETRIC CELL=   27     SYMMETRY FLAG=  0


         - MULTIPLE WIRE JUNCTIONS -
 JUNCTION    SEGMENTS  (- FOR END 1, + FOR END 2)
  NONE




                                 - - - - SEGMENTATION DATA - - - -

                                        COORDINATES IN METERS

                         I+ AND I- INDICATE THE SEGMENTS BEFORE AND AFTER I


  SEG.   COORDINATES OF SEG. CENTER     SEG.     ORIENTATION ANGLES    WIRE    CONNECTION DATA   TAG
  NO.       X         Y         Z       LENGTH     ALPHA     BETA      RADIUS    I-   I    I+    NO.
     1   0.40000  -0.15198  -0.15198   0.05373   45.00000  90.00000   0.00010     0    1    2      1
     2   0.40000  -0.11399  -0.11399   0.05373   45.00000  90.00000   0.00010     1    2    3      1
     3   0.40000  -0.07599  -0.07599   0.05373   45.00000  90.00000   0.00010     2    3    4      1
     4   0.40000  -0.03800  -0.03800   0.05373   45.00000  90.00000   0.00010     3    4    5      1
     5   0.40000   0.00000   0.00000   0.05373   45.00000  90.00000   0.00010     4    5    6      1
     6   0.40000   0.03800   0.03800   0.05373   45.00000  90.00000   0.00010     5    6    7      1
     7   0.40000   0.07599   0.07599   0.05373   45.00000  90.00000   0.00010     6    7    8      1
     8   0.40000   0.11399   0.11399   0.05373   45.00000  90.00000   0.00010     7    8    9      1
     9   0.40000   0.15198   0.15198   0.05373   45.00000  90.00000   0.00010     8    9    0      1
    10  -0.06838   0.42240  -0.15198   0.05373   45.00000-150.00000   0.00010     0   10   11      2
    11  -0.10129   0.40340  -0.11399   0.05373   45.00000-150.00000   0.00010    10   11   12      2
    12  -0.13419   0.38441  -0.07599   0.05373   45.00000-150.00000   0.00010    11   12   13      2
    13  -0.16710   0.36541  -0.03800   0.05373   45.00000-150.00000   0.00010    12   13   14      2
    14  -0.20000   0.34641   0.00000   0.05373   45.00000-150.00000   0.00010    13   14   15      2
    15  -0.23290   0.32741   0.03800   0.05373   45.00000-150.00000   0.00010    14   15   16      2
    16  -0.26581   0.30841   0.07599   0.05373   45.00000-150.00000   0.00010    15   16   17      2
    17  -0.29871   0.28942   0.11399   0.05373   45.00000-150.00000   0.00010    16   17   18      2
    18  -0.33162   0.27042   0.15198   0.05373   45.00000-150.00000   0.00010    17   18    0      2
    19  -0.33162  -0.27042  -0.15198   0.05373   45.00000 -30.00000   0.00010     0   19   20      3
    20  -0.29871  -0.28942  -0.11399   0.05373   45.00000 -30.00000   0.00010    19   20   21      3
    21  -0.26581  -0.30841  -0.07599   0.05373   45.00000 -30.00000   0.00010    20   21   22      3
    22  -0.23290  -0.32741  -0.03800   0.05373   45.00000 -30.00000   0.00010    21   22   23      3
    23  -0.20000  -0.34641   0.00000   0.05373   45.00000 -30.00000   0.00010    22   23   24      3
    24  -0.16710  -0.36541   0.03800   0.05373   45.00000 -30.00000   0.00010    23   24   25      3
    25  -0.13419  -0.38441   0.07599   0.05373   45.00000 -30.00000   0.00010    24   25   26      3
    26  -0.10129  -0.40340   0.11399   0.05373   45.00000 -30.00000   0.00010    25   26   27      3
    27  -0.06838  -0.42240   0.15198   0.05373   45.00000 -30.00000   0.00010    26   27    0      3






 ***** DATA CARD NO.  1   EX   0     1     5     0  1.00000E+00  0.00000E+00  0.00000E+00  0.00000E+00  0.00000E+00  0.00000E+00
 ***** DATA CARD NO.  2   EX   0     2     5     0  1.00000E+00  0.00000E+00  0.00000E+00  0.00000E+00  0.00000E+00  0.00000E+00
 ***** DATA CARD NO.  3   EX   0     3     5     0  1.00000E+00  0.00000E+00  0.00000E+00  0.00000E+00  0.00000E+00  0.00000E+00
 ***** DATA CARD NO.  4   FR   0     1     0     0  3.00000E+02  0.00000E+00  0.00000E+00  0.00000E+00  0.00000E+00  0.00000E+00
 ***** DATA CARD NO.  5   RP   0    73     1  1000 -1.80000E+02  0.00000E+00  5.00000E+00  1.00000E+00  0.00000E+00  0.00000E+00




                                 - - - - - - FREQUENCY - - - - - -

                                    FREQUENCY= 3.0000E+02 MHZ
                                    WAVELENGTH= 9.9933E-01 METERS




                    APPROXIMATE INTEGRATION EMPLOYED FOR SEGMENTS MORE THAN   1.000 WAVELENGTHS APART



                               - - - STRUCTURE IMPEDANCE LOADING - - -

                                   THIS STRUCTURE IS NOT LOADED



                                  - - - ANTENNA ENVIRONMENT - - -

                                            FREE SPACE



                                - - - MATRIX TIMING - - -

                        FILL=    0.000 SEC.,  FACTOR=    0.000 SEC.



                                          - - - ANTENNA INPUT PARAMETERS - - -

   TAG   SEG.    VOLTAGE (VOLTS)         CURRENT (AMPS)         IMPEDANCE (OHMS)        ADMITTANCE (MHOS)      POWER
   NO.   NO.    REAL        IMAG.       REAL        IMAG.       REAL        IMAG.       REAL        IMAG.     (WATTS)
     1     5 1.00000E+00 0.00000E+00 1.53562E-02 8.49058E-04 6.49218E+01-3.58958E+00 1.53562E-02 8.49058E-04 7.67810E-03
     2    14 1.00000E+00 0.00000E+00 1.53562E-02 8.49058E-04 6.49218E+01-3.58958E+00 1.53562E-02 8.49058E-04 7.67810E-03
     3    23 1.00000E+00 0.00000E+00 1.53562E-02 8.49058E-04 6.49218E+01-3.58958E+00 1.53562E-02 8.49058E-04 7.67810E-03



                             - - - CURRENTS AND LOCATION - - -

                                 DISTANCES IN WAVELENGTHS


  SEG.  TAG    COORD. OF SEG. CENTER     SEG.            - - - CURRENT (AMPS) - - -
  NO.   NO.     X        Y        Z      LENGTH     REAL        IMAG.       MAG.        PHASE
     1    1   0.4003  -0.1521  -0.1521  0.05377   2.9991E-03 -1.8036E-05  2.9992E-03   -0.345
     2    1   0.4003  -0.1141  -0.1141  0.05377   8.0651E-03  4.2875E-05  8.0652E-03    0.305
     3    1   0.4003  -0.0760  -0.0760  0.05377   1.1982E-02  2.2809E-04  1.1985E-02    1.091
     4    1   0.4003  -0.0380  -0.0380  0.05377   1.4492E-02  5.3549E-04  1.4501E-02    2.116
     5    1   0.4003   0.0000   0.0000  0.05377   1.5356E-02  8.4906E-04  1.5380E-02    3.165
     6    1   0.4003   0.0380   0.0380  0.05377   1.4492E-02  5.3549E-04  1.4501E-02    2.116
     7    1   0.4003   0.0760   0.0760  0.05377   1.1982E-02  2.2809E-04  1.1985E-02    1.091
     8    1   0.4003   0.1141   0.1141  0.05377   8.0651E-03  4.2875E-05  8.0652E-03    0.305
     9    1   0.4003   0.1521   0.1521  0.05377   2.9991E-03 -1.8036E-05  2.9992E-03   -0.345
    10    2  -0.0684   0.4227  -0.1521  0.05377   2.9991E-03 -1.8036E-05  2.9992E-03   -0.345
    11    2  -0.1014   0.4037  -0.1141  0.05377   8.0651E-03  4.2875E-05  8.0652E-03    0.305
    12    2  -0.1343   0.3847  -0.0760  0.05377   1.1982E-02  2.2809E-04  1.1985E-02    1.091
    13    2  -0.1672   0.3657  -0.0380  0.05377   1.4492E-02  5.3549E-04  1.4501E-02    2.116
    14    2  -0.2001   0.3466   0.0000  0.05377   1.5356E-02  8.4906E-04  1.5380E-02    3.165
    15    2  -0.2331   0.3276   0.0380  0.05377   1.4492E-02  5.3549E-04  1.4501E-02    2.116
    16    2  -0.2660   0.3086   0.0760  0.05377   1.1982E-02  2.2809E-04  1.1985E-02    1.091
    17    2  -0.2989   0.2896   0.1141  0.05377   8.0651E-03  4.2875E-05  8.0652E-03    0.305
    18    2  -0.3318   0.2706   0.1521  0.05377   2.9991E-03 -1.8036E-05  2.9992E-03   -0.345
    19    3  -0.3318  -0.2706  -0.1521  0.05377   2.9991E-03 -1.8036E-05  2.9992E-03   -0.345
    20    3  -0.2989  -0.2896  -0.1141  0.05377   8.0651E-03  4.2875E-05  8.0652E-03    0.305
    21    3  -0.2660  -0.3086  -0.0760  0.05377   1.1982E-02  2.2809E-04  1.1985E-02    1.091
    22    3  -0.2331  -0.3276  -0.0380  0.05377   1.4492E-02  5.3549E-04  1.4501E-02    2.116
    23    3  -0.2001  -0.3466   0.0000  0.05377   1.5356E-02  8.4906E-04  1.5380E-02    3.165
    24    3  -0.1672  -0.3657   0.0380  0.05377   1.4492E-02  5.3549E-04  1.4501E-02    2.116
    25    3  -0.1343  -0.3847   0.0760  0.05377   1.1982E-02  2.2809E-04  1.1985E-02    1.091
    26    3  -0.1014  -0.4037   0.1141  0.05377   8.0651E-03  4.2875E-05  8.0652E-03    0.305
    27    3  -0.0684  -0.4227   0.1521  0.05377   2.9991E-03 -1.8036E-05  2.9992E-03   -0.345



                                        - - - POWER BUDGET - - -

                                           INPUT POWER   = 2.3034E-02 WATTS
                                           RADIATED POWER= 2.3034E-02 WATTS
                                           STRUCTURE LOSS= 0.0000E+00 WATTS
                                           NETWORK LOSS  = 0.0000E+00 WATTS
                                           EFFICIENCY    = 100.00 PERCENT



                                                - - - RADIATION PATTERNS - - -

  - - ANGLES - -           - POWER GAINS -       - - - POLARIZATION - - -    - - - E(THETA) - - -    - - - E(PHI) - - -
  THETA     PHI        VERT.   HOR.    TOTAL      AXIAL     TILT   SENSE     MAGNITUDE    PHASE      MAGNITUDE    PHASE 
 DEGREES  DEGREES       DB      DB      DB        RATIO     DEG.              VOLTS/M    DEGREES      VOLTS/M    DEGREES
 -180.00     0.00    -999.99 -999.99 -999.99    0.00000     0.00            2.61855E-11    94.07    2.30785E-11    -7.71
 -175.00     0.00     -17.01  -15.91  -13.42    0.86814   -76.82  RIGHT     1.65769E-01   -87.77    1.88131E-01   178.63
 -170.00     0.00     -11.33  -10.03   -7.62    0.81973   -69.64  RIGHT     3.18961E-01   -86.96    3.70505E-01   175.60
 -165.00     0.00      -8.37   -6.73   -4.46    0.75749   -66.81  RIGHT     4.48425E-01   -85.88    5.41758E-01   172.61
 -160.00     0.00      -6.66   -4.53   -2.46    0.68658   -65.97  RIGHT     5.45831E-01   -84.35    6.97294E-01   169.67
 -155.00     0.00      -5.74   -2.98   -1.14    0.60830   -65.98  RIGHT     6.06666E-01   -82.13    8.33577E-01   166.81
 -150.00     0.00      -5.40   -1.86   -0.27    0.52311   -66.33  RIGHT     6.30843E-01   -78.92    9.48327E-01   164.03
 -145.00     0.00      -5.51   -1.06    0.27    0.43155   -66.76  RIGHT     6.22957E-01   -74.27    1.04059E+00   161.37
 -140.00     0.00      -5.95   -0.49    0.60    0.33455   -67.12  RIGHT     5.92285E-01   -67.61    1.11072E+00   158.83
 -135.00     0.00      -6.56   -0.11    0.78    0.23353   -67.34  RIGHT     5.52472E-01   -58.36    1.16023E+00   156.43
 -130.00     0.00      -7.08    0.12    0.88    0.13050   -67.35  RIGHT     5.20139E-01   -46.29    1.19154E+00   154.20
 -125.00     0.00      -7.24    0.24    0.95    0.02801   -67.13  RIGHT     5.10501E-01   -32.33    1.20776E+00   152.15
 -120.00     0.00      -6.92    0.27    1.03    0.07080   -66.65  LEFT      5.30086E-01   -18.63    1.21238E+00   150.30
 -115.00     0.00      -6.23    0.25    1.13    0.16241   -65.92  LEFT      5.73389E-01    -7.20    1.20896E+00   148.68
 -110.00     0.00      -5.44    0.19    1.24    0.24309   -64.97  LEFT      6.28097E-01     1.29    1.20090E+00   147.31
 -105.00     0.00      -4.73    0.12    1.35    0.30939   -63.92  LEFT      6.82043E-01     7.13    1.19124E+00   146.22
 -100.00     0.00      -4.18    0.05    1.44    0.35848   -62.92  LEFT      7.26187E-01    10.85    1.18248E+00   145.42
  -95.00     0.00      -3.85    0.01    1.51    0.38853   -62.20  LEFT      7.54752E-01    12.90    1.17646E+00   144.93
  -90.00     0.00      -3.73   -0.01    1.53    0.39863   -61.94  LEFT      7.64602E-01    13.56    1.17432E+00   144.77
  -85.00     0.00      -3.85    0.01    1.51    0.38853   -62.20  LEFT      7.54752E-01    12.90    1.17646E+00   144.93
  -80.00     0.00      -4.18    0.05    1.44    0.35848   -62.92  LEFT      7.26187E-01    10.85    1.18248E+00   145.42
  -75.00     0.00      -4.73    0.12    1.35    0.30939   -63.92  LEFT      6.82043E-01     7.13    1.19124E+00   146.22
  -70.00     0.00      -5.44    0.19    1.24    0.24309   -64.97  LEFT      6.28097E-01     1.29    1.20090E+00   147.31
  -65.00     0.00      -6.23    0.25    1.13    0.16241   -65.92  LEFT      5.73389E-01    -7.20    1.20896E+00   148.68
  -60.00     0.00      -6.92    0.27    1.03    0.07080   -66.65  LEFT      5.30086E-01   -18.63    1.21238E+00   150.30
  -55.00     0.00      -7.24    0.24    0.95    0.02801   -67.13  RIGHT     5.10501E-01   -32.33    1.20776E+00   152.15
  -50.00     0.00      -7.08    0.12    0.88    0.13050   -67.35  RIGHT     5.20139E-01   -46.29    1.19154E+00   154.20
  -45.00     0.00      -6.56   -0.11    0.78    0.23353   -67.34  RIGHT     5.52472E-01   -58.36    1.16023E+00   156.43
  -40.00     0.00      -5.95   -0.49    0.60    0.33455   -67.12  RIGHT     5.92285E-01   -67.61    1.11072E+00   158.83
  -35.00     0.00      -5.51   -1.06    0.27    0.43155   -66.76  RIGHT     6.22957E-01   -74.27    1.04059E+00   161.37
  -30.00     0.00      -5.40   -1.86   -0.27    0.52311   -66.33  RIGHT     6.30843E-01   -78.92    9.48327E-01   164.03
  -25.00     0.00      -5.74   -2.98   -1.14    0.60830   -65.98  RIGHT     6.06666E-01   -82.13    8.33577E-01   166.81
  -20.00     0.00      -6.66   -4.53   -2.46    0.68658   -65.97  RIGHT     5.45831E-01   -84.35    6.97294E-01   169.67
  -15.00     0.00      -8.37   -6.73   -4.46    0.75749   -66.81  RIGHT     4.48425E-01   -85.88    5.41758E-01   172.61
  -10.00     0.00     -11.33  -10.03   -7.62    0.81973   -69.64  RIGHT     3.18961E-01   -86.96    3.70505E-01   175.60
   -5.00     0.00     -17.01  -15.91  -13.42    0.86814   -76.82  RIGHT     1.65769E-01   -87.77    1.88131E-01   178.63
    0.00     0.00    -999.99 -999.99 -999.99    0.00000     0.00            6.61421E-12   -78.60    3.83422E-12   -78.01
    5.00     0.00     -17.02  -15.91  -13.42    0.86625    76.12  RIGHT     1.65703E-01    90.88    1.88119E-01     4.72
   10.00     0.00     -11.33  -10.03   -7.62    0.81709    69.27  RIGHT     3.18711E-01    90.07    3.70461E-01     7.74
   15.00     0.00      -8.38   -6.73   -4.46    0.75469    66.61  RIGHT     4.47915E-01    88.98    5.41666E-01    10.72
   20.00     0.00      -6.67   -4.54   -2.46    0.68384    65.85  RIGHT     5.45048E-01    87.44    6.97146E-01    13.65
   25.00     0.00      -5.76   -2.99   -1.14    0.60572    65.90  RIGHT     6.05662E-01    85.22    8.33377E-01    16.51
   30.00     0.00      -5.42   -1.87   -0.28    0.52076    66.28  RIGHT     6.29733E-01    82.00    9.48086E-01    19.27
   35.00     0.00      -5.53   -1.06    0.27    0.42949    66.72  RIGHT     6.21896E-01    77.34    1.04033E+00    21.92
   40.00     0.00      -5.96   -0.49    0.59    0.33283    67.10  RIGHT     5.91435E-01    70.68    1.11048E+00    24.45
   45.00     0.00      -6.56   -0.11    0.77    0.23221    67.32  RIGHT     5.51953E-01    61.43    1.16002E+00    26.83
   50.00     0.00      -7.08    0.12    0.88    0.12962    67.34  RIGHT     5.19957E-01    49.40    1.19140E+00    29.05
   55.00     0.00      -7.24    0.24    0.95    0.02762    67.13  RIGHT     5.10498E-01    35.50    1.20773E+00    31.09
   60.00     0.00      -6.92    0.27    1.03    0.07069    66.66  LEFT      5.29992E-01    21.87    1.21247E+00    32.92
   65.00     0.00      -6.24    0.25    1.13    0.16180    65.93  LEFT      5.72971E-01    10.48    1.20918E+00    34.53
   70.00     0.00      -5.45    0.19    1.24    0.24202    64.99  LEFT      6.27253E-01     2.02    1.20124E+00    35.89
   75.00     0.00      -4.74    0.12    1.35    0.30793    63.95  LEFT      6.80783E-01    -3.79    1.19169E+00    36.97
   80.00     0.00      -4.20    0.06    1.44    0.35673    62.97  LEFT      7.24595E-01    -7.51    1.18301E+00    37.77
   85.00     0.00      -3.87    0.01    1.50    0.38660    62.26  LEFT      7.52948E-01    -9.56    1.17705E+00    38.25
   90.00     0.00      -3.75    0.00    1.53    0.39665    61.99  LEFT      7.62726E-01   -10.21    1.17493E+00    38.42
   95.00     0.00      -3.87    0.01    1.50    0.38660    62.26  LEFT      7.52948E-01    -9.56    1.17705E+00    38.25
  100.00     0.00      -4.20    0.06    1.44    0.35673    62.97  LEFT      7.24595E-01    -7.51    1.18301E+00    37.77
  105.00     0.00      -4.74    0.12    1.35    0.30793    63.95  LEFT      6.80783E-01    -3.79    1.19169E+00    36.97
  110.00     0.00      -5.45    0.19    1.24    0.24202    64.99  LEFT      6.27253E-01     2.02    1.20124E+00    35.89
  115.00     0.00      -6.24    0.25    1.13    0.16180    65.93  LEFT      5.72971E-01    10.48    1.20918E+00    34.53
  120.00     0.00      -6.92    0.27    1.03    0.07069    66.66  LEFT      5.29992E-01    21.87    1.21247E+00    32.92
  125.00     0.00      -7.24    0.24    0.95    0.02762    67.13  RIGHT     5.10498E-01    35.50    1.20773E+00    31.09
  130.00     0.00      -7.08    0.12    0.88    0.12962    67.34  RIGHT     5.19957E-01    49.40    1.19140E+00    29.05
  135.00     0.00      -6.56   -0.11    0.77    0.23221    67.32  RIGHT     5.51953E-01    61.43    1.16002E+00    26.83
  140.00     0.00      -5.96   -0.49    0.59    0.33283    67.10  RIGHT     5.91435E-01    70.68    1.11048E+00    24.45
  145.00     0.00      -5.53   -1.06    0.27    0.42949    66.72  RIGHT     6.21896E-01    77.34    1.04033E+00    21.92
  150.00     0.00      -5.42   -1.87   -0.28    0.52076    66.28  RIGHT     6.29733E-01    82.00    9.48086E-01    19.27
  155.00     0.00      -5.76   -2.99   -1.14    0.60572    65.90  RIGHT     6.05662E-01    85.22    8.33377E-01    16.51
  160.00     0.00      -6.67   -4.54   -2.46    0.68384    65.85  RIGHT     5.45048E-01    87.44    6.97146E-01    13.65
  165.00     0.00      -8.38   -6.73   -4.46    0.75469    66.61  RIGHT     4.47915E-01    88.98    5.41666E-01    10.72
  170.00     0.00     -11.33  -10.03   -7.62    0.81709    69.27  RIGHT     3.18711E-01    90.07    3.70461E-01     7.74
  175.00     0.00     -17.02  -15.91  -13.42    0.86625    76.12  RIGHT     1.65703E-01    90.88    1.88119E-01     4.72
  180.00     0.00    -999.99 -999.99 -999.99    0.00000     0.00            1.31647E-11   -93.46    2.17920E-11  -168.39






 ***** DATA CARD NO.  6   RP   0    73     1  1000 -1.80000E+02  4.50000E+01  5.00000E+00  1.00000E+00  0.00000E+00  0.00000E+00



                                                - - - RADIATION PATTERNS - - -

  - - ANGLES - -           - POWER GAINS -       - - - POLARIZATION - - -    - - - E(THETA) - - -    - - - E(PHI) - - -
  THETA     PHI        VERT.   HOR.    TOTAL      AXIAL     TILT   SENSE     MAGNITUDE    PHASE      MAGNITUDE    PHASE 
 DEGREES  DEGREES       DB      DB      DB        RATIO     DEG.              VOLTS/M    DEGREES      VOLTS/M    DEGREES
 -180.00    45.00    -999.99 -999.99 -999.99    0.00000     0.00            2.69391E-11    94.28    2.18620E-11     6.80
 -175.00    45.00     -16.65  -15.98  -13.29    0.91304    74.11  RIGHT     1.72768E-01   -88.90    1.86647E-01  -176.15
 -170.00    45.00     -10.61  -10.17   -7.38    0.89780    58.99  RIGHT     3.46348E-01   -89.40    3.64265E-01  -173.95
 -165.00    45.00      -7.29   -6.96   -4.11    0.86057    52.34  RIGHT     5.07814E-01   -90.04    5.27384E-01  -171.74
 -160.00    45.00      -5.20   -4.86   -2.01    0.81593    50.62  RIGHT     6.45967E-01   -90.89    6.71749E-01  -169.53
 -155.00    45.00      -3.87   -3.40   -0.62    0.76674    51.05  RIGHT     7.52407E-01   -92.06    7.94527E-01  -167.34
 -150.00    45.00      -3.10   -2.37    0.29    0.71227    52.44  RIGHT     8.22198E-01   -93.65    8.94358E-01  -165.17
 -145.00    45.00      -2.77   -1.66    0.83    0.65117    54.21  RIGHT     8.54097E-01   -95.81    9.71284E-01  -163.05
 -140.00    45.00      -2.81   -1.17    1.09    0.58232    56.08  RIGHT     8.50394E-01   -98.72    1.02657E+00  -160.99
 -135.00    45.00      -3.16   -0.88    1.14    0.50513    57.85  RIGHT     8.16482E-01  -102.62    1.06247E+00  -159.02
 -130.00    45.00      -3.78   -0.72    1.02    0.41967    59.47  RIGHT     7.60284E-01  -107.84    1.08194E+00  -157.17
 -125.00    45.00      -4.60   -0.67    0.81    0.32671    60.87  RIGHT     6.91668E-01  -114.76    1.08837E+00  -155.46
 -120.00    45.00      -5.53   -0.69    0.54    0.22772    62.06  RIGHT     6.21815E-01  -123.78    1.08533E+00  -153.91
 -115.00    45.00      -6.40   -0.76    0.28    0.12499    63.06  RIGHT     5.62203E-01  -135.11    1.07634E+00  -152.57
 -110.00    45.00      -7.04   -0.86    0.08    0.02157    63.88  RIGHT     5.22449E-01  -148.33    1.06470E+00  -151.45
 -105.00    45.00      -7.30   -0.95   -0.05    0.07874    64.59  LEFT      5.06862E-01  -162.16    1.05332E+00  -150.61
 -100.00    45.00      -7.21   -1.02   -0.09    0.17151    65.25  LEFT      5.12154E-01  -174.98    1.04465E+00  -150.05
  -95.00    45.00      -6.93   -1.06   -0.06    0.25204    65.99  LEFT      5.29311E-01   174.29    1.04055E+00  -149.80
  -90.00    45.00      -6.63   -1.04    0.02    0.31569    66.91  LEFT      5.47906E-01   165.94    1.04225E+00  -149.87
  -85.00    45.00      -6.45   -0.98    0.11    0.35838    68.15  LEFT      5.59081E-01   159.78    1.05026E+00  -150.25
  -80.00    45.00      -6.49   -0.86    0.19    0.37699    69.72  LEFT      5.56413E-01   155.57    1.06431E+00  -150.92
  -75.00    45.00      -6.82   -0.71    0.24    0.36990    71.53  LEFT      5.35888E-01   153.20    1.08333E+00  -151.84
  -70.00    45.00      -7.49   -0.53    0.26    0.33746    73.35  LEFT      4.95890E-01   152.80    1.10536E+00  -152.98
  -65.00    45.00      -8.58   -0.36    0.25    0.28203    74.98  LEFT      4.37652E-01   154.94    1.12763E+00  -154.30
  -60.00    45.00     -10.12   -0.21    0.21    0.20752    76.30  LEFT      3.66551E-01   160.93    1.14657E+00  -155.76
  -55.00    45.00     -12.00   -0.13    0.15    0.11849    77.28  LEFT      2.95207E-01   173.46    1.15806E+00  -157.32
  -50.00    45.00     -13.50   -0.13    0.06    0.01950    77.93  LEFT      2.48505E-01  -164.42    1.15761E+00  -158.97
  -45.00    45.00     -13.27   -0.26   -0.05    0.08536    78.33  RIGHT     2.54971E-01  -137.23    1.14076E+00  -160.69
  -40.00    45.00     -11.61   -0.55   -0.22    0.19261    78.51  RIGHT     3.08716E-01  -116.76    1.10349E+00  -162.47
  -35.00    45.00      -9.89   -1.04   -0.51    0.29942    78.55  RIGHT     3.76209E-01  -104.90    1.04260E+00  -164.29
  -30.00    45.00      -8.72   -1.79   -0.99    0.40355    78.49  RIGHT     4.30763E-01   -98.24    9.56189E-01  -166.17
  -25.00    45.00      -8.22   -2.88   -1.76    0.50322    78.40  RIGHT     4.56192E-01   -94.37    8.43912E-01  -168.08
  -20.00    45.00      -8.47   -4.41   -2.97    0.59708    78.40  RIGHT     4.43167E-01   -92.03    7.07186E-01  -170.05
  -15.00    45.00      -9.63   -6.61   -4.85    0.68404    78.69  RIGHT     3.87765E-01   -90.56    5.49173E-01  -172.05
  -10.00    45.00     -12.12   -9.93   -7.88    0.76306    79.70  RIGHT     2.91047E-01   -89.61    3.74587E-01  -174.11
   -5.00    45.00     -17.39  -15.86  -13.55    0.83252    82.44  RIGHT     1.58646E-01   -88.95    1.89329E-01  -176.20
    0.00    45.00    -999.99 -999.99 -999.99    0.00000     0.00            7.38807E-12   -78.38    1.96610E-12   100.58
    5.00    45.00     -16.65  -15.98  -13.29    0.91518   -75.21  RIGHT     1.72816E-01    92.02    1.86653E-01    -0.49
   10.00    45.00     -10.61  -10.17   -7.37    0.90135   -59.42  RIGHT     3.46527E-01    92.53    3.64281E-01    -2.68
   15.00    45.00      -7.28   -6.96   -4.11    0.86432   -52.42  RIGHT     5.08182E-01    93.17    5.27399E-01    -4.88
   20.00    45.00      -5.19   -4.86   -2.01    0.81960   -50.61  RIGHT     6.46537E-01    94.03    6.71745E-01    -7.09
   25.00    45.00      -3.86   -3.40   -0.62    0.77028   -51.04  RIGHT     7.53144E-01    95.19    7.94478E-01    -9.28
   30.00    45.00      -3.09   -2.37    0.29    0.71565   -52.44  RIGHT     8.23023E-01    96.78    8.94239E-01   -11.46
   35.00    45.00      -2.76   -1.66    0.83    0.65433   -54.23  RIGHT     8.54893E-01    98.93    9.71072E-01   -13.59
   40.00    45.00      -2.80   -1.18    1.10    0.58520   -56.10  RIGHT     8.51029E-01   101.82    1.02626E+00   -15.66
   45.00    45.00      -3.16   -0.88    1.14    0.50765   -57.89  RIGHT     8.16825E-01   105.72    1.06205E+00   -17.64
   50.00    45.00      -3.78   -0.72    1.02    0.42174   -59.51  RIGHT     7.60238E-01   110.93    1.08142E+00   -19.51
   55.00    45.00      -4.61   -0.67    0.80    0.32824   -60.91  RIGHT     6.91201E-01   117.86    1.08777E+00   -21.25
   60.00    45.00      -5.54   -0.70    0.54    0.22866   -62.10  RIGHT     6.21001E-01   126.92    1.08468E+00   -22.82
   65.00    45.00      -6.42   -0.77    0.28    0.12530   -63.09  RIGHT     5.61260E-01   138.31    1.07567E+00   -24.18
   70.00    45.00      -7.05   -0.86    0.07    0.02125   -63.90  RIGHT     5.21727E-01   151.61    1.06404E+00   -25.31
   75.00    45.00      -7.31   -0.96   -0.05    0.07962   -64.59  LEFT      5.06722E-01   165.50    1.05271E+00   -26.18
   80.00    45.00      -7.20   -1.03   -0.09    0.17286   -65.23  LEFT      5.12809E-01   178.35    1.04412E+00   -26.75
   85.00    45.00      -6.90   -1.06   -0.06    0.25371   -65.94  LEFT      5.30758E-01  -170.94    1.04013E+00   -27.01
   90.00    45.00      -6.60   -1.05    0.02    0.31754   -66.84  LEFT      5.49992E-01  -162.63    1.04197E+00   -26.95
   95.00    45.00      -6.41   -0.98    0.11    0.36026   -68.06  LEFT      5.61581E-01  -156.51    1.05013E+00   -26.58
  100.00    45.00      -6.45   -0.86    0.20    0.37877   -69.63  LEFT      5.59089E-01  -152.35    1.06436E+00   -25.92
  105.00    45.00      -6.78   -0.71    0.25    0.37148   -71.43  LEFT      5.38511E-01  -150.01    1.08355E+00   -25.00
  110.00    45.00      -7.45   -0.53    0.27    0.33875   -73.27  LEFT      4.98263E-01  -149.64    1.10575E+00   -23.86
  115.00    45.00      -8.54   -0.35    0.26    0.28297   -74.91  LEFT      4.39617E-01  -151.79    1.12816E+00   -22.55
  120.00    45.00     -10.09   -0.21    0.22    0.20807   -76.25  LEFT      3.68002E-01  -157.80    1.14722E+00   -21.09
  125.00    45.00     -11.97   -0.12    0.15    0.11864   -77.24  LEFT      2.96110E-01  -170.32    1.15878E+00   -19.52
  130.00    45.00     -13.48   -0.13    0.07    0.01928   -77.92  LEFT      2.48963E-01   167.52    1.15836E+00   -17.86
  135.00    45.00     -13.26   -0.25   -0.04    0.08592   -78.33  RIGHT     2.55301E-01   140.26    1.14150E+00   -16.13
  140.00    45.00     -11.60   -0.54   -0.21    0.19347   -78.54  RIGHT     3.09189E-01   119.75    1.10416E+00   -14.34
  145.00    45.00      -9.88   -1.04   -0.50    0.30053   -78.60  RIGHT     3.76849E-01   107.89    1.04318E+00   -12.50
  150.00    45.00      -8.70   -1.79   -0.98    0.40484   -78.57  RIGHT     4.31472E-01   101.25    9.56644E-01   -10.61
  155.00    45.00      -8.21   -2.87   -1.76    0.50466   -78.52  RIGHT     4.56857E-01    97.40    8.44240E-01    -8.67
  160.00    45.00      -8.46   -4.41   -2.97    0.59860   -78.57  RIGHT     4.43698E-01    95.07    7.07397E-01    -6.69
  165.00    45.00      -9.62   -6.61   -4.85    0.68558   -78.94  RIGHT     3.88116E-01    93.62    5.49287E-01    -4.66
  170.00    45.00     -12.12   -9.93   -7.88    0.76449   -80.07  RIGHT     2.91221E-01    92.69    3.74633E-01    -2.59
  175.00    45.00     -17.39  -15.86  -13.55    0.83357   -83.04  RIGHT     1.58693E-01    92.05    1.89339E-01    -0.47
  180.00    45.00    -999.99 -999.99 -999.99    0.00000     0.00            1.24320E-11   -94.36    2.25452E-11   176.70






 ***** DATA CARD NO.  7   RP   0    73     1  1000 -1.80000E+02  9.00000E+01  5.00000E+00  1.00000E+00  0.00000E+00  0.00000E+00



                                                - - - RADIATION PATTERNS - - -

  - - ANGLES - -           - POWER GAINS -       - - - POLARIZATION - - -    - - - E(THETA) - - -    - - - E(PHI) - - -
  THETA     PHI        VERT.   HOR.    TOTAL      AXIAL     TILT   SENSE     MAGNITUDE    PHASE      MAGNITUDE    PHASE 
 DEGREES  DEGREES       DB      DB      DB        RATIO     DEG.              VOLTS/M    DEGREES      VOLTS/M    DEGREES
 -180.00    90.00    -999.99 -999.99 -999.99    0.00000     0.00            2.34069E-11    93.17    2.19713E-11    18.95
 -175.00    90.00     -17.55  -15.84  -13.60    0.82071    89.71  RIGHT     1.55738E-01   -88.45    1.89758E-01  -178.34
 -170.00    90.00     -12.47   -9.90   -7.99    0.74421    89.81  RIGHT     2.79622E-01   -88.47    3.75727E-01  -178.35
 -165.00    90.00     -10.21   -6.59   -5.02    0.65916    89.87  RIGHT     3.62825E-01   -88.48    5.50428E-01  -178.37
 -160.00    90.00      -9.35   -4.41   -3.20    0.56650    89.91  RIGHT     4.00602E-01   -88.49    7.07153E-01  -178.38
 -155.00    90.00      -9.52   -2.91   -2.05    0.46731    89.93  RIGHT     3.92793E-01   -88.50    8.40544E-01  -178.39
 -150.00    90.00     -10.68   -1.87   -1.34    0.36293    89.95  RIGHT     3.43705E-01   -88.52    9.47035E-01  -178.41
 -145.00    90.00     -13.06   -1.19   -0.91    0.25502    89.97  RIGHT     2.61420E-01   -88.52    1.02508E+00  -178.42
 -140.00    90.00     -17.50   -0.77   -0.68    0.14570    89.99  RIGHT     1.56649E-01   -88.52    1.07515E+00  -178.43
 -135.00    90.00     -29.07   -0.58   -0.57    0.03762    90.00  RIGHT     4.13683E-02   -88.44    1.09954E+00  -178.44
 -130.00    90.00     -24.19   -0.56   -0.54    0.06584   -89.99  LEFT      7.25540E-02    91.34    1.10196E+00  -178.44
 -125.00    90.00     -16.57   -0.68   -0.57    0.16053   -89.97  LEFT      1.74516E-01    91.37    1.08711E+00  -178.45
 -120.00    90.00     -13.24   -0.90   -0.65    0.24148   -89.95  LEFT      2.56000E-01    91.37    1.06012E+00  -178.45
 -115.00    90.00     -11.55   -1.18   -0.80    0.30306   -89.94  LEFT      3.10990E-01    91.36    1.02615E+00  -178.45
 -110.00    90.00     -10.87   -1.49   -1.02    0.33944   -89.92  LEFT      3.36024E-01    91.35    9.89918E-01  -178.45
 -105.00    90.00     -11.03   -1.80   -1.31    0.34533   -89.92  LEFT      3.29964E-01    91.34    9.55505E-01  -178.44
 -100.00    90.00     -12.05   -2.07   -1.65    0.31702   -89.92  LEFT      2.93603E-01    91.32    9.26128E-01  -178.44
  -95.00    90.00     -14.20   -2.28   -2.01    0.25353   -89.92  LEFT      2.29217E-01    91.29    9.04075E-01  -178.43
  -90.00    90.00     -18.47   -2.41   -2.30    0.15736   -89.94  LEFT      1.40161E-01    91.19    8.90689E-01  -178.42
  -85.00    90.00     -31.70   -2.45   -2.44    0.03447   -89.96  LEFT      3.05631E-02    90.34    8.86402E-01  -178.41
  -80.00    90.00     -21.86   -2.41   -2.36    0.10652   -89.98  RIGHT     9.48858E-02   -88.20    8.90790E-01  -178.40
  -75.00    90.00     -14.13   -2.29   -2.02    0.25588    89.99  RIGHT     2.30965E-01   -88.40    9.02633E-01  -178.38
  -70.00    90.00      -9.99   -2.13   -1.47    0.40436    89.96  RIGHT     3.72004E-01   -88.45    9.19981E-01  -178.37
  -65.00    90.00      -7.22   -1.94   -0.81    0.54437    89.92  RIGHT     5.11834E-01   -88.46    9.40223E-01  -178.36
  -60.00    90.00      -5.23   -1.76   -0.14    0.67054    89.85  RIGHT     6.43837E-01   -88.47    9.60168E-01  -178.34
  -55.00    90.00      -3.77   -1.61    0.45    0.77964    89.74  RIGHT     7.61055E-01   -88.46    9.76146E-01  -178.33
  -50.00    90.00      -2.75   -1.54    0.91    0.87022    89.51  RIGHT     8.56443E-01   -88.46    9.84153E-01  -178.32
  -45.00    90.00      -2.10   -1.58    1.18    0.94202    88.84  RIGHT     9.23257E-01   -88.45    9.80039E-01  -178.31
  -40.00    90.00      -1.80   -1.76    1.23    0.99505    75.43  RIGHT     9.55599E-01   -88.44    9.59750E-01  -178.30
  -35.00    90.00      -1.86   -2.13    1.02    0.96890     2.17  RIGHT     9.49050E-01   -88.43    9.19621E-01  -178.30
  -30.00    90.00      -2.30   -2.75    0.49    0.95041     1.33  RIGHT     9.01354E-01   -88.43    8.56703E-01  -178.29
  -25.00    90.00      -3.20   -3.68   -0.42    0.94593     1.19  RIGHT     8.13028E-01   -88.43    7.69102E-01  -178.29
  -20.00    90.00      -4.65   -5.06   -1.84    0.95414     1.38  RIGHT     6.87792E-01   -88.43    6.56289E-01  -178.30
  -15.00    90.00      -6.87   -7.09   -3.97    0.97484     2.48  RIGHT     5.32695E-01   -88.43    5.19342E-01  -178.30
  -10.00    90.00     -10.33  -10.25   -7.28    0.99083    83.26  RIGHT     3.57847E-01   -88.43    3.61066E-01  -178.31
   -5.00    90.00     -16.51  -16.01  -13.24    0.94485    88.94  RIGHT     1.75712E-01   -88.44    1.85960E-01  -178.32
    0.00    90.00    -999.99 -999.99 -999.99    0.00000     0.00            3.83422E-12   -78.01    6.61421E-12   101.40
    5.00    90.00     -17.55  -15.84  -13.60    0.82071    89.71  RIGHT     1.55738E-01    91.55    1.89758E-01     1.66
   10.00    90.00     -12.47   -9.90   -7.99    0.74421    89.81  RIGHT     2.79622E-01    91.53    3.75727E-01     1.65
   15.00    90.00     -10.21   -6.59   -5.02    0.65916    89.87  RIGHT     3.62825E-01    91.52    5.50428E-01     1.63
   20.00    90.00      -9.35   -4.41   -3.20    0.56650    89.91  RIGHT     4.00602E-01    91.51    7.07153E-01     1.62
   25.00    90.00      -9.52   -2.91   -2.05    0.46731    89.93  RIGHT     3.92793E-01    91.50    8.40544E-01     1.61
   30.00    90.00     -10.68   -1.87   -1.34    0.36293    89.95  RIGHT     3.43705E-01    91.48    9.47035E-01     1.59
   35.00    90.00     -13.06   -1.19   -0.91    0.25502    89.97  RIGHT     2.61420E-01    91.48    1.02508E+00     1.58
   40.00    90.00     -17.50   -0.77   -0.68    0.14570    89.99  RIGHT     1.56649E-01    91.48    1.07515E+00     1.57
   45.00    90.00     -29.07   -0.58   -0.57    0.03762   -90.00  RIGHT     4.13683E-02    91.56    1.09954E+00     1.56
   50.00    90.00     -24.19   -0.56   -0.54    0.06584   -89.99  LEFT      7.25540E-02   -88.66    1.10196E+00     1.56
   55.00    90.00     -16.57   -0.68   -0.57    0.16053   -89.97  LEFT      1.74516E-01   -88.63    1.08711E+00     1.55
   60.00    90.00     -13.24   -0.90   -0.65    0.24148   -89.95  LEFT      2.56000E-01   -88.63    1.06012E+00     1.55
   65.00    90.00     -11.55   -1.18   -0.80    0.30306   -89.94  LEFT      3.10990E-01   -88.64    1.02615E+00     1.55
   70.00    90.00     -10.87   -1.49   -1.02    0.33944   -89.92  LEFT      3.36024E-01   -88.65    9.89918E-01     1.55
   75.00    90.00     -11.03   -1.80   -1.31    0.34533   -89.92  LEFT      3.29964E-01   -88.66    9.55505E-01     1.56
   80.00    90.00     -12.05   -2.07   -1.65    0.31702   -89.92  LEFT      2.93603E-01   -88.68    9.26128E-01     1.56
   85.00    90.00     -14.20   -2.28   -2.01    0.25353   -89.92  LEFT      2.29217E-01   -88.71    9.04075E-01     1.57
   90.00    90.00     -18.47   -2.41   -2.30    0.15736   -89.94  LEFT      1.40161E-01   -88.81    8.90689E-01     1.58
   95.00    90.00     -31.70   -2.45   -2.44    0.03447   -89.96  LEFT      3.05631E-02   -89.66    8.86402E-01     1.59
  100.00    90.00     -21.86   -2.41   -2.36    0.10652   -89.98  RIGHT     9.48858E-02    91.80    8.90790E-01     1.60
  105.00    90.00     -14.13   -2.29   -2.02    0.25588    89.99  RIGHT     2.30965E-01    91.60    9.02633E-01     1.62
  110.00    90.00      -9.99   -2.13   -1.47    0.40436    89.96  RIGHT     3.72004E-01    91.55    9.19981E-01     1.63
  115.00    90.00      -7.22   -1.94   -0.81    0.54437    89.92  RIGHT     5.11834E-01    91.54    9.40223E-01     1.64
  120.00    90.00      -5.23   -1.76   -0.14    0.67054    89.85  RIGHT     6.43837E-01    91.53    9.60168E-01     1.66
  125.00    90.00      -3.77   -1.61    0.45    0.77964    89.74  RIGHT     7.61055E-01    91.54    9.76146E-01     1.67
  130.00    90.00      -2.75   -1.54    0.91    0.87022    89.51  RIGHT     8.56443E-01    91.54    9.84153E-01     1.68
  135.00    90.00      -2.10   -1.58    1.18    0.94202    88.84  RIGHT     9.23257E-01    91.55    9.80039E-01     1.69
  140.00    90.00      -1.80   -1.76    1.23    0.99505    75.43  RIGHT     9.55599E-01    91.56    9.59750E-01     1.70
  145.00    90.00      -1.86   -2.13    1.02    0.96890     2.17  RIGHT     9.49050E-01    91.57    9.19621E-01     1.70
  150.00    90.00      -2.30   -2.75    0.49    0.95041     1.33  RIGHT     9.01354E-01    91.57    8.56703E-01     1.71
  155.00    90.00      -3.20   -3.68   -0.42    0.94593     1.19  RIGHT     8.13028E-01    91.57    7.69102E-01     1.71
  160.00    90.00      -4.65   -5.06   -1.84    0.95414     1.38  RIGHT     6.87792E-01    91.57    6.56289E-01     1.70
  165.00    90.00      -6.87   -7.09   -3.97    0.97484     2.48  RIGHT     5.32695E-01    91.57    5.19342E-01     1.70
  170.00    90.00     -10.33  -10.25   -7.28    0.99083    83.26  RIGHT     3.57847E-01    91.57    3.61066E-01     1.69
  175.00    90.00     -16.51  -16.01  -13.24    0.94485    88.94  RIGHT     1.75712E-01    91.56    1.85960E-01     1.68
  180.00    90.00    -999.99 -999.99 -999.99    0.00000     0.00            1.58906E-11   -90.83    2.41530E-11   166.00






 ***** DATA CARD NO.  8   RP   0     1    73  1000  3.00000E+01  0.00000E+00  1.00000E+00  5.00000E+00  0.00000E+00  0.00000E+00



                                                - - - RADIATION PATTERNS - - -

  - - ANGLES - -           - POWER GAINS -       - - - POLARIZATION - - -    - - - E(THETA) - - -    - - - E(PHI) - - -
  THETA     PHI        VERT.   HOR.    TOTAL      AXIAL     TILT   SENSE     MAGNITUDE    PHASE      MAGNITUDE    PHASE 
 DEGREES  DEGREES       DB      DB      DB        RATIO     DEG.              VOLTS/M    DEGREES      VOLTS/M    DEGREES
   30.00     0.00      -5.42   -1.87   -0.28    0.52076    66.28  RIGHT     6.29733E-01    82.00    9.48086E-01    19.27
   30.00     5.00      -4.49   -2.00   -0.06    0.57605    61.95  RIGHT     7.00614E-01    83.24    9.34025E-01    18.94
   30.00    10.00      -3.72   -2.17    0.13    0.63976    57.41  RIGHT     7.66169E-01    84.72    9.15209E-01    17.46
   30.00    15.00      -3.10   -2.37    0.29    0.71227    52.44  RIGHT     8.22198E-01    86.35    8.94358E-01    14.83
   30.00    20.00      -2.66   -2.56    0.40    0.79373    46.47  RIGHT     8.65088E-01    88.06    8.75197E-01    11.16
   30.00    25.00      -2.39   -2.70    0.47    0.88256    36.90  RIGHT     8.92059E-01    89.80    8.61638E-01     6.66
   30.00    30.00      -2.30   -2.75    0.49    0.95041     1.33  RIGHT     9.01354E-01    91.57    8.56703E-01     1.71
   30.00    35.00      -2.39   -2.70    0.47    0.88643   -36.49  RIGHT     8.92364E-01    93.33    8.61551E-01    -3.26
   30.00    40.00      -2.66   -2.56    0.40    0.79746   -46.39  RIGHT     8.65676E-01    95.08    8.75063E-01    -7.77
   30.00    45.00      -3.09   -2.37    0.29    0.71565   -52.44  RIGHT     8.23023E-01    96.78    8.94239E-01   -11.46
   30.00    50.00      -3.70   -2.17    0.14    0.64279   -57.43  RIGHT     7.67168E-01    98.39    9.15170E-01   -14.11
   30.00    55.00      -4.48   -1.99   -0.05    0.57873   -62.00  RIGHT     7.01710E-01    99.86    9.34117E-01   -15.61
   30.00    60.00      -5.40   -1.86   -0.27    0.52311   -66.33  RIGHT     6.30843E-01   101.08    9.48327E-01   -15.97
   30.00    65.00      -6.45   -1.79   -0.51    0.47563   -70.52  RIGHT     5.59101E-01   101.89    9.56476E-01   -15.20
   30.00    70.00      -7.58   -1.77   -0.76    0.43618   -74.59  RIGHT     4.91122E-01   102.05    9.58754E-01   -13.38
   30.00    75.00      -8.70   -1.79   -0.98    0.40484   -78.57  RIGHT     4.31472E-01   101.25    9.56644E-01   -10.61
   30.00    80.00      -9.70   -1.83   -1.17    0.38192   -82.45  RIGHT     3.84527E-01    99.19    9.52448E-01    -7.04
   30.00    85.00     -10.42   -1.86   -1.29    0.36783   -86.27  RIGHT     3.54264E-01    95.80    9.48619E-01    -2.88
   30.00    90.00     -10.68   -1.87   -1.34    0.36293    89.95  RIGHT     3.43705E-01    91.48    9.47035E-01     1.59
   30.00    95.00     -10.42   -1.86   -1.30    0.36737    86.18  RIGHT     3.54021E-01    87.18    9.48412E-01     6.07
   30.00   100.00      -9.71   -1.83   -1.17    0.38103    82.37  RIGHT     3.84044E-01    83.79    9.52079E-01    10.25
   30.00   105.00      -8.72   -1.79   -0.99    0.40355    78.49  RIGHT     4.30763E-01    81.76    9.56189E-01    13.83
   30.00   110.00      -7.59   -1.77   -0.76    0.43451    74.52  RIGHT     4.90219E-01    80.98    9.58301E-01    16.63
   30.00   115.00      -6.47   -1.79   -0.52    0.47362    70.46  RIGHT     5.58059E-01    81.17    9.56103E-01    18.47
   30.00   120.00      -5.42   -1.87   -0.28    0.52076    66.28  RIGHT     6.29733E-01    82.00    9.48086E-01    19.27
   30.00   125.00      -4.49   -2.00   -0.06    0.57605    61.95  RIGHT     7.00614E-01    83.24    9.34025E-01    18.94
   30.00   130.00      -3.72   -2.17    0.13    0.63976    57.41  RIGHT     7.66169E-01    84.72    9.15209E-01    17.46
   30.00   135.00      -3.10   -2.37    0.29    0.71227    52.44  RIGHT     8.22198E-01    86.35    8.94358E-01    14.83
   30.00   140.00      -2.66   -2.56    0.40    0.79373    46.47  RIGHT     8.65088E-01    88.06    8.75197E-01    11.16
   30.00   145.00      -2.39   -2.70    0.47    0.88256    36.90  RIGHT     8.92059E-01    89.80    8.61638E-01     6.66
   30.00   150.00      -2.30   -2.75    0.49    0.95041     1.33  RIGHT     9.01354E-01    91.57    8.56703E-01     1.71
   30.00   155.00      -2.39   -2.70    0.47    0.88643   -36.49  RIGHT     8.92364E-01    93.33    8.61551E-01    -3.26
   30.00   160.00      -2.66   -2.56    0.40    0.79746   -46.39  RIGHT     8.65676E-01    95.08    8.75063E-01    -7.77
   30.00   165.00      -3.09   -2.37    0.29    0.71565   -52.44  RIGHT     8.23023E-01    96.78    8.94239E-01   -11.46
   30.00   170.00      -3.70   -2.17    0.14    0.64279   -57.43  RIGHT     7.67168E-01    98.39    9.15170E-01   -14.11
   30.00   175.00      -4.48   -1.99   -0.05    0.57873   -62.00  RIGHT     7.01710E-01    99.86    9.34117E-01   -15.61
   30.00   180.00      -5.40   -1.86   -0.27    0.52311   -66.33  RIGHT     6.30843E-01   101.08    9.48327E-01   -15.97
   30.00   185.00      -6.45   -1.79   -0.51    0.47563   -70.52  RIGHT     5.59101E-01   101.89    9.56476E-01   -15.20
   30.00   190.00      -7.58   -1.77   -0.76    0.43618   -74.59  RIGHT     4.91122E-01   102.05    9.58754E-01   -13.38
   30.00   195.00      -8.70   -1.79   -0.98    0.40484   -78.57  RIGHT     4.31472E-01   101.25    9.56644E-01   -10.61
   30.00   200.00      -9.70   -1.83   -1.17    0.38192   -82.45  RIGHT     3.84527E-01    99.19    9.52448E-01    -7.04
   30.00   205.00     -10.42   -1.86   -1.29    0.36783   -86.27  RIGHT     3.54264E-01    95.80    9.48619E-01    -2.88
   30.00   210.00     -10.68   -1.87   -1.34    0.36293    89.95  RIGHT     3.43705E-01    91.48    9.47035E-01     1.59
   30.00   215.00     -10.42   -1.86   -1.30    0.36737    86.18  RIGHT     3.54021E-01    87.18    9.48412E-01     6.07
   30.00   220.00      -9.71   -1.83   -1.17    0.38103    82.37  RIGHT     3.84044E-01    83.79    9.52079E-01    10.25
   30.00   225.00      -8.72   -1.79   -0.99    0.40355    78.49  RIGHT     4.30763E-01    81.76    9.56189E-01    13.83
   30.00   230.00      -7.59   -1.77   -0.76    0.43451    74.52  RIGHT     4.90219E-01    80.98    9.58301E-01    16.63
   30.00   235.00      -6.47   -1.79   -0.52    0.47362    70.46  RIGHT     5.58059E-01    81.17    9.56103E-01    18.47
   30.00   240.00      -5.42   -1.87   -0.28    0.52076    66.28  RIGHT     6.29733E-01    82.00    9.48086E-01    19.27
   30.00   245.00      -4.49   -2.00   -0.06    0.57605    61.95  RIGHT     7.00614E-01    83.24    9.34025E-01    18.94
   30.00   250.00      -3.72   -2.17    0.13    0.63976    57.41  RIGHT     7.66169E-01    84.72    9.15209E-01    17.46
   30.00   255.00      -3.10   -2.37    0.29    0.71227    52.44  RIGHT     8.22198E-01    86.35    8.94358E-01    14.83
   30.00   260.00      -2.66   -2.56    0.40    0.79373    46.47  RIGHT     8.65088E-01    88.06    8.75197E-01    11.16
   30.00   265.00      -2.39   -2.70    0.47    0.88256    36.90  RIGHT     8.92059E-01    89.80    8.61638E-01     6.66
   30.00   270.00      -2.30   -2.75    0.49    0.95041     1.33  RIGHT     9.01354E-01    91.57    8.56703E-01     1.71
   30.00   275.00      -2.39   -2.70    0.47    0.88643   -36.49  RIGHT     8.92364E-01    93.33    8.61551E-01    -3.26
   30.00   280.00      -2.66   -2.56    0.40    0.79746   -46.39  RIGHT     8.65676E-01    95.08    8.75063E-01    -7.77
   30.00   285.00      -3.09   -2.37    0.29    0.71565   -52.44  RIGHT     8.23023E-01    96.78    8.94239E-01   -11.46
   30.00   290.00      -3.70   -2.17    0.14    0.64279   -57.43  RIGHT     7.67168E-01    98.39    9.15170E-01   -14.11
   30.00   295.00      -4.48   -1.99   -0.05    0.57873   -62.00  RIGHT     7.01710E-01    99.86    9.34117E-01   -15.61
   30.00   300.00      -5.40   -1.86   -0.27    0.52311   -66.33  RIGHT     6.30843E-01   101.08    9.48327E-01   -15.97
   30.00   305.00      -6.45   -1.79   -0.51    0.47563   -70.52  RIGHT     5.59101E-01   101.89    9.56476E-01   -15.20
   30.00   310.00      -7.58   -1.77   -0.76    0.43618   -74.59  RIGHT     4.91122E-01   102.05    9.58754E-01   -13.38
   30.00   315.00      -8.70   -1.79   -0.98    0.40484   -78.57  RIGHT     4.31472E-01   101.25    9.56644E-01   -10.61
   30.00   320.00      -9.70   -1.83   -1.17    0.38192   -82.45  RIGHT     3.84527E-01    99.19    9.52448E-01    -7.04
   30.00   325.00     -10.42   -1.86   -1.29    0.36783   -86.27  RIGHT     3.54264E-01    95.80    9.48619E-01    -2.88
   30.00   330.00     -10.68   -1.87   -1.34    0.36293    89.95  RIGHT     3.43705E-01    91.48    9.47035E-01     1.59
   30.00   335.00     -10.42   -1.86   -1.30    0.36737    86.18  RIGHT     3.54021E-01    87.18    9.48412E-01     6.07
   30.00   340.00      -9.71   -1.83   -1.17    0.38103    82.37  RIGHT     3.84044E-01    83.79    9.52079E-01    10.25
   30.00   345.00      -8.72   -1.79   -0.99    0.40355    78.49  RIGHT     4.30763E-01    81.76    9.56189E-01    13.83
   30.00   350.00      -7.59   -1.77   -0.76    0.43451    74.52  RIGHT     4.90219E-01    80.98    9.58301E-01    16.63
   30.00   355.00      -6.47   -1.79   -0.52    0.47362    70.46  RIGHT     5.58059E-01    81.17    9.56103E-01    18.47
   30.00   360.00      -5.42   -1.87   -0.28    0.52076    66.28  RIGHT     6.29733E-01    82.00    9.48086E-01    19.27






 ***** DATA CARD NO.  9   RP   0     1    73  1000  6.00000E+01  0.00000E+00  1.00000E+00  5.00000E+00  0.00000E+00  0.00000E+00



                                                - - - RADIATION PATTERNS - - -

  - - ANGLES - -           - POWER GAINS -       - - - POLARIZATION - - -    - - - E(THETA) - - -    - - - E(PHI) - - -
  THETA     PHI        VERT.   HOR.    TOTAL      AXIAL     TILT   SENSE     MAGNITUDE    PHASE      MAGNITUDE    PHASE 
 DEGREES  DEGREES       DB      DB      DB        RATIO     DEG.              VOLTS/M    DEGREES      VOLTS/M    DEGREES
   60.00     0.00      -6.92    0.27    1.03    0.07069    66.66  LEFT      5.29992E-01    21.87    1.21247E+00    32.92
   60.00     5.00      -6.28    0.11    1.01    0.00646    64.40  RIGHT     5.70191E-01    33.43    1.18991E+00    32.49
   60.00    10.00      -5.83   -0.23    0.83    0.10430    62.75  RIGHT     6.00653E-01    44.80    1.14488E+00    30.28
   60.00    15.00      -5.53   -0.69    0.54    0.22772    62.06  RIGHT     6.21815E-01    56.22    1.08533E+00    26.09
   60.00    20.00      -5.35   -1.19    0.22    0.38166    63.31  RIGHT     6.34997E-01    67.81    1.02427E+00    19.75
   60.00    25.00      -5.25   -1.60   -0.04    0.55943    69.73  RIGHT     6.41873E-01    79.61    9.77767E-01    11.36
   60.00    30.00      -5.23   -1.76   -0.14    0.67054    89.85  RIGHT     6.43837E-01    91.53    9.60168E-01     1.66
   60.00    35.00      -5.26   -1.60   -0.05    0.56101   -69.88  RIGHT     6.41465E-01   103.47    9.77436E-01    -8.06
   60.00    40.00      -5.36   -1.20    0.21    0.38305   -63.37  RIGHT     6.34292E-01   115.29    1.02370E+00   -16.46
   60.00    45.00      -5.54   -0.70    0.54    0.22866   -62.10  RIGHT     6.21001E-01   126.92    1.08468E+00   -22.82
   60.00    50.00      -5.84   -0.23    0.82    0.10482   -62.77  RIGHT     5.99953E-01   138.38    1.14430E+00   -27.02
   60.00    55.00      -6.29    0.11    1.00    0.00663   -64.41  RIGHT     5.69813E-01   149.78    1.18954E+00   -29.25
   60.00    60.00      -6.92    0.27    1.03    0.07080   -66.65  LEFT      5.30086E-01   161.37    1.21238E+00   -29.70
   60.00    65.00      -7.75    0.26    0.89    0.13098   -69.39  LEFT      4.81477E-01   173.53    1.21029E+00   -28.49
   60.00    70.00      -8.81    0.08    0.61    0.17620   -72.58  LEFT      4.26139E-01  -173.16    1.18605E+00   -25.64
   60.00    75.00     -10.09   -0.21    0.22    0.20807   -76.25  LEFT      3.68002E-01  -157.80    1.14722E+00   -21.09
   60.00    80.00     -11.48   -0.53   -0.20    0.22814   -80.41  LEFT      3.13442E-01  -139.14    1.10510E+00   -14.84
   60.00    85.00     -12.71   -0.79   -0.52    0.23851   -85.04  LEFT      2.72173E-01  -115.92    1.07253E+00    -7.10
   60.00    90.00     -13.24   -0.90   -0.65    0.24148   -89.95  LEFT      2.56000E-01   -88.63    1.06012E+00     1.55
   60.00    95.00     -12.74   -0.80   -0.53    0.23820    85.12  LEFT      2.71225E-01   -61.25    1.07215E+00    10.20
   60.00   100.00     -11.52   -0.54   -0.21    0.22765    80.49  LEFT      3.11998E-01   -37.86    1.10449E+00    17.96
   60.00   105.00     -10.12   -0.21    0.21    0.20752    76.30  LEFT      3.66551E-01   -19.07    1.14657E+00    24.24
   60.00   110.00      -8.83    0.08    0.60    0.17572    72.61  LEFT      4.25011E-01    -3.63    1.18555E+00    28.82
   60.00   115.00      -7.76    0.25    0.89    0.13065    69.40  LEFT      4.80845E-01     9.71    1.21006E+00    31.69
   60.00   120.00      -6.92    0.27    1.03    0.07069    66.66  LEFT      5.29992E-01    21.87    1.21247E+00    32.92
   60.00   125.00      -6.28    0.11    1.01    0.00646    64.40  RIGHT     5.70191E-01    33.43    1.18991E+00    32.49
   60.00   130.00      -5.83   -0.23    0.83    0.10430    62.75  RIGHT     6.00653E-01    44.80    1.14488E+00    30.28
   60.00   135.00      -5.53   -0.69    0.54    0.22772    62.06  RIGHT     6.21815E-01    56.22    1.08533E+00    26.09
   60.00   140.00      -5.35   -1.19    0.22    0.38166    63.31  RIGHT     6.34997E-01    67.81    1.02427E+00    19.75
   60.00   145.00      -5.25   -1.60   -0.04    0.55943    69.73  RIGHT     6.41873E-01    79.61    9.77767E-01    11.36
   60.00   150.00      -5.23   -1.76   -0.14    0.67054    89.85  RIGHT     6.43837E-01    91.53    9.60168E-01     1.66
   60.00   155.00      -5.26   -1.60   -0.05    0.56101   -69.88  RIGHT     6.41465E-01   103.47    9.77436E-01    -8.06
   60.00   160.00      -5.36   -1.20    0.21    0.38305   -63.37  RIGHT     6.34292E-01   115.29    1.02370E+00   -16.46
   60.00   165.00      -5.54   -0.70    0.54    0.22866   -62.10  RIGHT     6.21001E-01   126.92    1.08468E+00   -22.82
   60.00   170.00      -5.84   -0.23    0.82    0.10482   -62.77  RIGHT     5.99953E-01   138.38    1.14430E+00   -27.02
   60.00   175.00      -6.29    0.11    1.00    0.00663   -64.41  RIGHT     5.69813E-01   149.78    1.18954E+00   -29.25
   60.00   180.00      -6.92    0.27    1.03    0.07080   -66.65  LEFT      5.30086E-01   161.37    1.21238E+00   -29.70
   60.00   185.00      -7.75    0.26    0.89    0.13098   -69.39  LEFT      4.81477E-01   173.53    1.21029E+00   -28.49
   60.00   190.00      -8.81    0.08    0.61    0.17620   -72.58  LEFT      4.26139E-01  -173.16    1.18605E+00   -25.64
   60.00   195.00     -10.09   -0.21    0.22    0.20807   -76.25  LEFT      3.68002E-01  -157.80    1.14722E+00   -21.09
   60.00   200.00     -11.48   -0.53   -0.20    0.22814   -80.41  LEFT      3.13442E-01  -139.14    1.10510E+00   -14.84
   60.00   205.00     -12.71   -0.79   -0.52    0.23851   -85.04  LEFT      2.72173E-01  -115.92    1.07253E+00    -7.10
   60.00   210.00     -13.24   -0.90   -0.65    0.24148   -89.95  LEFT      2.56000E-01   -88.63    1.06012E+00     1.55
   60.00   215.00     -12.74   -0.80   -0.53    0.23820    85.12  LEFT      2.71225E-01   -61.25    1.07215E+00    10.20
   60.00   220.00     -11.52   -0.54   -0.21    0.22765    80.49  LEFT      3.11998E-01   -37.86    1.10449E+00    17.96
   60.00   225.00     -10.12   -0.21    0.21    0.20752    76.30  LEFT      3.66551E-01   -19.07    1.14657E+00    24.24
   60.00   230.00      -8.83    0.08    0.60    0.17572    72.61  LEFT      4.25011E-01    -3.63    1.18555E+00    28.82
   60.00   235.00      -7.76    0.25    0.89    0.13065    69.40  LEFT      4.80845E-01     9.71    1.21006E+00    31.69
   60.00   240.00      -6.92    0.27    1.03    0.07069    66.66  LEFT      5.29992E-01    21.87    1.21247E+00    32.92
   60.00   245.00      -6.28    0.11    1.01    0.00646    64.40  RIGHT     5.70191E-01    33.43    1.18991E+00    32.49
   60.00   250.00      -5.83   -0.23    0.83    0.10430    62.75  RIGHT     6.00653E-01    44.80    1.14488E+00    30.28
   60.00   255.00      -5.53   -0.69    0.54    0.22772    62.06  RIGHT     6.21815E-01    56.22    1.08533E+00    26.09
   60.00   260.00      -5.35   -1.19    0.22    0.38166    63.31  RIGHT     6.34997E-01    67.81    1.02427E+00    19.75
   60.00   265.00      -5.25   -1.60   -0.04    0.55943    69.73  RIGHT     6.41873E-01    79.61    9.77767E-01    11.36
   60.00   270.00      -5.23   -1.76   -0.14    0.67054    89.85  RIGHT     6.43837E-01    91.53    9.60168E-01     1.66
   60.00   275.00      -5.26   -1.60   -0.05    0.56101   -69.88  RIGHT     6.41465E-01   103.47    9.77436E-01    -8.06
   60.00   280.00      -5.36   -1.20    0.21    0.38305   -63.37  RIGHT     6.34292E-01   115.29    1.02370E+00   -16.46
   60.00   285.00      -5.54   -0.70    0.54    0.22866   -62.10  RIGHT     6.21001E-01   126.92    1.08468E+00   -22.82
   60.00   290.00      -5.84   -0.23    0.82    0.10482   -62.77  RIGHT     5.99953E-01   138.38    1.14430E+00   -27.02
   60.00   295.00      -6.29    0.11    1.00    0.00663   -64.41  RIGHT     5.69813E-01   149.78    1.18954E+00   -29.25
   60.00   300.00      -6.92    0.27    1.03    0.07080   -66.65  LEFT      5.30086E-01   161.37    1.21238E+00   -29.70
   60.00   305.00      -7.75    0.26    0.89    0.13098   -69.39  LEFT      4.81477E-01   173.53    1.21029E+00   -28.49
   60.00   310.00      -8.81    0.08    0.61    0.17620   -72.58  LEFT      4.26139E-01  -173.16    1.18605E+00   -25.64
   60.00   315.00     -10.09   -0.21    0.22    0.20807   -76.25  LEFT      3.68002E-01  -157.80    1.14722E+00   -21.09
   60.00   320.00     -11.48   -0.53   -0.20    0.22814   -80.41  LEFT      3.13442E-01  -139.14    1.10510E+00   -14.84
   60.00   325.00     -12.71   -0.79   -0.52    0.23851   -85.04  LEFT      2.72173E-01  -115.92    1.07253E+00    -7.10
   60.00   330.00     -13.24   -0.90   -0.65    0.24148   -89.95  LEFT      2.56000E-01   -88.63    1.06012E+00     1.55
   60.00   335.00     -12.74   -0.80   -0.53    0.23820    85.12  LEFT      2.71225E-01   -61.25    1.07215E+00    10.20
   60.00   340.00     -11.52   -0.54   -0.21    0.22765    80.49  LEFT      3.11998E-01   -37.86    1.10449E+00    17.96
   60.00   345.00     -10.12   -0.21    0.21    0.20752    76.30  LEFT      3.66551E-01   -19.07    1.14657E+00    24.24
   60.00   350.00      -8.83    0.08    0.60    0.17572    72.61  LEFT      4.25011E-01    -3.63    1.18555E+00    28.82
   60.00   355.00      -7.76    0.25    0.89    0.13065    69.40  LEFT      4.80845E-01     9.71    1.21006E+00    31.69
   60.00   360.00      -6.92    0.27    1.03    0.07069    66.66  LEFT      5.29992E-01    21.87    1.21247E+00    32.92






 ***** DATA CARD NO. 10   RP   0     1    73  1000  9.00000E+01  0.00000E+00  1.00000E+00  5.00000E+00  0.00000E+00  0.00000E+00



                                                - - - RADIATION PATTERNS - - -

  - - ANGLES - -           - POWER GAINS -       - - - POLARIZATION - - -    - - - E(THETA) - - -    - - - E(PHI) - - -
  THETA     PHI        VERT.   HOR.    TOTAL      AXIAL     TILT   SENSE     MAGNITUDE    PHASE      MAGNITUDE    PHASE 
 DEGREES  DEGREES       DB      DB      DB        RATIO     DEG.              VOLTS/M    DEGREES      VOLTS/M    DEGREES
   90.00     0.00      -3.75    0.00    1.53    0.39665    61.99  LEFT      7.62726E-01   -10.21    1.17493E+00    38.42
   90.00     5.00      -4.05   -0.13    1.35    0.38801    62.47  LEFT      7.37569E-01   -10.53    1.15801E+00    37.56
   90.00    10.00      -4.96   -0.49    0.84    0.36144    63.99  LEFT      6.64023E-01   -11.63    1.11050E+00    34.90
   90.00    15.00      -6.63   -1.04    0.02    0.31569    66.91  LEFT      5.47906E-01   -14.06    1.04225E+00    30.13
   90.00    20.00      -9.37   -1.67   -0.99    0.25267    71.87  LEFT      3.99528E-01   -19.51    9.69356E-01    22.88
   90.00    25.00     -13.85   -2.20   -1.91    0.18748    79.66  LEFT      2.38573E-01   -34.63    9.12420E-01    13.10
   90.00    30.00     -18.47   -2.41   -2.30    0.15736   -89.94  LEFT      1.40161E-01   -88.81    8.90689E-01     1.58
   90.00    35.00     -13.78   -2.20   -1.91    0.18851   -79.55  LEFT      2.40497E-01  -142.33    9.12378E-01    -9.94
   90.00    40.00      -9.32   -1.67   -0.99    0.25428   -71.79  LEFT      4.01665E-01  -157.24    9.69222E-01   -19.72
   90.00    45.00      -6.60   -1.05    0.02    0.31754   -66.84  LEFT      5.49992E-01  -162.63    1.04197E+00   -26.95
   90.00    50.00      -4.93   -0.50    0.84    0.36338   -63.93  LEFT      6.66010E-01  -165.03    1.11006E+00   -31.72
   90.00    55.00      -4.02   -0.13    1.35    0.38999   -62.41  LEFT      7.39476E-01  -166.13    1.15744E+00   -34.38
   90.00    60.00      -3.73   -0.01    1.53    0.39863   -61.94  LEFT      7.64602E-01  -166.44    1.17432E+00   -35.23
   90.00    65.00      -4.02   -0.13    1.35    0.38999   -62.41  LEFT      7.39476E-01  -166.13    1.15744E+00   -34.38
   90.00    70.00      -4.93   -0.50    0.84    0.36338   -63.93  LEFT      6.66010E-01  -165.03    1.11006E+00   -31.72
   90.00    75.00      -6.60   -1.05    0.02    0.31754   -66.84  LEFT      5.49992E-01  -162.63    1.04197E+00   -26.95
   90.00    80.00      -9.32   -1.67   -0.99    0.25428   -71.79  LEFT      4.01665E-01  -157.24    9.69222E-01   -19.72
   90.00    85.00     -13.78   -2.20   -1.91    0.18851   -79.55  LEFT      2.40497E-01  -142.33    9.12378E-01    -9.94
   90.00    90.00     -18.47   -2.41   -2.30    0.15736   -89.94  LEFT      1.40161E-01   -88.81    8.90689E-01     1.58
   90.00    95.00     -13.85   -2.20   -1.91    0.18748    79.66  LEFT      2.38573E-01   -34.63    9.12420E-01    13.10
   90.00   100.00      -9.37   -1.67   -0.99    0.25267    71.87  LEFT      3.99528E-01   -19.51    9.69356E-01    22.88
   90.00   105.00      -6.63   -1.04    0.02    0.31569    66.91  LEFT      5.47906E-01   -14.06    1.04225E+00    30.13
   90.00   110.00      -4.96   -0.49    0.84    0.36144    63.99  LEFT      6.64023E-01   -11.63    1.11050E+00    34.90
   90.00   115.00      -4.05   -0.13    1.35    0.38801    62.47  LEFT      7.37569E-01   -10.53    1.15801E+00    37.56
   90.00   120.00      -3.75    0.00    1.53    0.39665    61.99  LEFT      7.62726E-01   -10.21    1.17493E+00    38.42
   90.00   125.00      -4.05   -0.13    1.35    0.38801    62.47  LEFT      7.37569E-01   -10.53    1.15801E+00    37.56
   90.00   130.00      -4.96   -0.49    0.84    0.36144    63.99  LEFT      6.64023E-01   -11.63    1.11050E+00    34.90
   90.00   135.00      -6.63   -1.04    0.02    0.31569    66.91  LEFT      5.47906E-01   -14.06    1.04225E+00    30.13
   90.00   140.00      -9.37   -1.67   -0.99    0.25267    71.87  LEFT      3.99528E-01   -19.51    9.69356E-01    22.88
   90.00   145.00     -13.85   -2.20   -1.91    0.18748    79.66  LEFT      2.38573E-01   -34.63    9.12420E-01    13.10
   90.00   150.00     -18.47   -2.41   -2.30    0.15736   -89.94  LEFT      1.40161E-01   -88.81    8.90689E-01     1.58
   90.00   155.00     -13.78   -2.20   -1.91    0.18851   -79.55  LEFT      2.40497E-01  -142.33    9.12378E-01    -9.94
   90.00   160.00      -9.32   -1.67   -0.99    0.25428   -71.79  LEFT      4.01665E-01  -157.24    9.69222E-01   -19.72
   90.00   165.00      -6.60   -1.05    0.02    0.31754   -66.84  LEFT      5.49992E-01  -162.63    1.04197E+00   -26.95
   90.00   170.00      -4.93   -0.50    0.84    0.36338   -63.93  LEFT      6.66010E-01  -165.03    1.11006E+00   -31.72
   90.00   175.00      -4.02   -0.13    1.35    0.38999   -62.41  LEFT      7.39476E-01  -166.13    1.15744E+00   -34.38
   90.00   180.00      -3.73   -0.01    1.53    0.39863   -61.94  LEFT      7.64602E-01  -166.44    1.17432E+00   -35.23
   90.00   185.00      -4.02   -0.13    1.35    0.38999   -62.41  LEFT      7.39476E-01  -166.13    1.15744E+00   -34.38
   90.00   190.00      -4.93   -0.50    0.84    0.36338   -63.93  LEFT      6.66010E-01  -165.03    1.11006E+00   -31.72
   90.00   195.00      -6.60   -1.05    0.02    0.31754   -66.84  LEFT      5.49992E-01  -162.63    1.04197E+00   -26.95
   90.00   200.00      -9.32   -1.67   -0.99    0.25428   -71.79  LEFT      4.01665E-01  -157.24    9.69222E-01   -19.72
   90.00   205.00     -13.78   -2.20   -1.91    0.18851   -79.55  LEFT      2.40497E-01  -142.33    9.12378E-01    -9.94
   90.00   210.00     -18.47   -2.41   -2.30    0.15736   -89.94  LEFT      1.40161E-01   -88.81    8.90689E-01     1.58
   90.00   215.00     -13.85   -2.20   -1.91    0.18748    79.66  LEFT      2.38573E-01   -34.63    9.12420E-01    13.10
   90.00   220.00      -9.37   -1.67   -0.99    0.25267    71.87  LEFT      3.99528E-01   -19.51    9.69356E-01    22.88
   90.00   225.00      -6.63   -1.04    0.02    0.31569    66.91  LEFT      5.47906E-01   -14.06    1.04225E+00    30.13
   90.00   230.00      -4.96   -0.49    0.84    0.36144    63.99  LEFT      6.64023E-01   -11.63    1.11050E+00    34.90
   90.00   235.00      -4.05   -0.13    1.35    0.38801    62.47  LEFT      7.37569E-01   -10.53    1.15801E+00    37.56
   90.00   240.00      -3.75    0.00    1.53    0.39665    61.99  LEFT      7.62726E-01   -10.21    1.17493E+00    38.42
   90.00   245.00      -4.05   -0.13    1.35    0.38801    62.47  LEFT      7.37569E-01   -10.53    1.15801E+00    37.56
   90.00   250.00      -4.96   -0.49    0.84    0.36144    63.99  LEFT      6.64023E-01   -11.63    1.11050E+00    34.90
   90.00   255.00      -6.63   -1.04    0.02    0.31569    66.91  LEFT      5.47906E-01   -14.06    1.04225E+00    30.13
   90.00   260.00      -9.37   -1.67   -0.99    0.25267    71.87  LEFT      3.99528E-01   -19.51    9.69356E-01    22.88
   90.00   265.00     -13.85   -2.20   -1.91    0.18748    79.66  LEFT      2.38573E-01   -34.63    9.12420E-01    13.10
   90.00   270.00     -18.47   -2.41   -2.30    0.15736   -89.94  LEFT      1.40161E-01   -88.81    8.90689E-01     1.58
   90.00   275.00     -13.78   -2.20   -1.91    0.18851   -79.55  LEFT      2.40497E-01  -142.33    9.12378E-01    -9.94
   90.00   280.00      -9.32   -1.67   -0.99    0.25428   -71.79  LEFT      4.01665E-01  -157.24    9.69222E-01   -19.72
   90.00   285.00      -6.60   -1.05    0.02    0.31754   -66.84  LEFT      5.49992E-01  -162.63    1.04197E+00   -26.95
   90.00   290.00      -4.93   -0.50    0.84    0.36338   -63.93  LEFT      6.66010E-01  -165.03    1.11006E+00   -31.72
   90.00   295.00      -4.02   -0.13    1.35    0.38999   -62.41  LEFT      7.39476E-01  -166.13    1.15744E+00   -34.38
   90.00   300.00      -3.73   -0.01    1.53    0.39863   -61.94  LEFT      7.64602E-01  -166.44    1.17432E+00   -35.23
   90.00   305.00      -4.02   -0.13    1.35    0.38999   -62.41  LEFT      7.39476E-01  -166.13    1.15744E+00   -34.38
   90.00   310.00      -4.93   -0.50    0.84    0.36338   -63.93  LEFT      6.66010E-01  -165.03    1.11006E+00   -31.72
   90.00   315.00      -6.60   -1.05    0.02    0.31754   -66.84  LEFT      5.49992E-01  -162.63    1.04197E+00   -26.95
   90.00   320.00      -9.32   -1.67   -0.99    0.25428   -71.79  LEFT      4.01665E-01  -157.24    9.69222E-01   -19.72
   90.00   325.00     -13.78   -2.20   -1.91    0.18851   -79.55  LEFT      2.40497E-01  -142.33    9.12378E-01    -9.94
   90.00   330.00     -18.47   -2.41   -2.30    0.15736   -89.94  LEFT      1.40161E-01   -88.81    8.90689E-01     1.58
   90.00   335.00     -13.85   -2.20   -1.91    0.18748    79.66  LEFT      2.38573E-01   -34.63    9.12420E-01    13.10
   90.00   340.00      -9.37   -1.67   -0.99    0.25267    71.87  LEFT      3.99528E-01   -19.51    9.69356E-01    22.88
   90.00   345.00      -6.63   -1.04    0.02    0.31569    66.91  LEFT      5.47906E-01   -14.06    1.04225E+00    30.13
   90.00   350.00      -4.96   -0.49    0.84    0.36144    63.99  LEFT      6.64023E-01   -11.63    1.11050E+00    34.90
   90.00   355.00      -4.05   -0.13    1.35    0.38801    62.47  LEFT      7.37569E-01   -10.53    1.15801E+00    37.56
   90.00   360.00      -3.75    0.00    1.53    0.39665    61.99  LEFT      7.62726E-01   -10.21    1.17493E+00    38.42






 ***** DATA CARD NO. 11   EN   0     1    73  1000  9.00000E+01  0.00000E+00  1.00000E+00  5.00000E+00  0.00000E+00  0.00000E+00

 RUN TIME =     0.047
