1



                                 *********************************************

                                    NUMERICAL ELECTROMAGNETICS CODE (NEC-2D)

                                 *********************************************




                                     - - - - COMMENTS - - - -


                          Example 1 :	Dipole in free space 	' Comment cards                          
                          See GetStarted.txt                                                         
                          							' End of comment                                                    




                                 - - - STRUCTURE SPECIFICATION - - -

                                     COORDINATES MUST BE INPUT IN
                                     METERS OR BE SCALED TO METERS
                                     BEFORE STRUCTURE INPUT IS ENDED


  WIRE                                                                               NO. OF    FIRST  LAST     TAG
  NO.        X1         Y1         Z1          X2         Y2         Z2      RADIUS   SEG.     SEG.   SEG.     NO.
     1    0.00000   -0.24180    0.00000     0.00000    0.24180    0.00000    0.00010      9        1     9       1
      THE STRUCTURE HAS BEEN MOVED, MOVE DATA CARD IS -
        0    0  45.00000   0.00000   0.00000   0.00000   0.00000   0.00000   1.00000
      THE STRUCTURE HAS BEEN MOVED, MOVE DATA CARD IS -
        0    0   0.00000   0.00000   0.00000   0.40000   0.00000   0.00000   1.00000
      THE STRUCTURE HAS BEEN MOVED, MOVE DATA CARD IS -
        1    2   0.00000   0.00000 120.00000   0.00000   0.00000   0.00000   1.00000
      THE STRUCTURE HAS BEEN MOVED, MOVE DATA CARD IS -
        3    3   0.00000   0.00000   0.00000   0.00000   0.00000   0.80000   1.00000

   TOTAL SEGMENTS USED=  108     NO. SEG. IN A SYMMETRIC CELL=  108     SYMMETRY FLAG=  0


         - MULTIPLE WIRE JUNCTIONS -
 JUNCTION    SEGMENTS  (- FOR END 1, + FOR END 2)
  NONE




                                 - - - - SEGMENTATION DATA - - - -

                                        COORDINATES IN METERS

                         I+ AND I- INDICATE THE SEGMENTS BEFORE AND AFTER I


  SEG.   COORDINATES OF SEG. CENTER     SEG.     ORIENTATION ANGLES    WIRE    CONNECTION DATA   TAG
  NO.       X         Y         Z       LENGTH     ALPHA     BETA      RADIUS    I-   I    I+    NO.
     1   0.40000  -0.15198  -0.15198   0.05373   45.00000  90.00000   0.00010     0    1    2      1
     2   0.40000  -0.11399  -0.11399   0.05373   45.00000  90.00000   0.00010     1    2    3      1
     3   0.40000  -0.07599  -0.07599   0.05373   45.00000  90.00000   0.00010     2    3    4      1
     4   0.40000  -0.03800  -0.03800   0.05373   45.00000  90.00000   0.00010     3    4    5      1
     5   0.40000   0.00000   0.00000   0.05373   45.00000  90.00000   0.00010     4    5    6      1
     6   0.40000   0.03800   0.03800   0.05373   45.00000  90.00000   0.00010     5    6    7      1
     7   0.40000   0.07599   0.07599   0.05373   45.00000  90.00000   0.00010     6    7    8      1
     8   0.40000   0.11399   0.11399   0.05373   45.00000  90.00000   0.00010     7    8    9      1
     9   0.40000   0.15198   0.15198   0.05373   45.00000  90.00000   0.00010     8    9    0      1
    10  -0.06838   0.42240  -0.15198   0.05373   45.00000-150.00000   0.00010     0   10   11      2
    11  -0.10129   0.40340  -0.11399   0.05373   45.00000-150.00000   0.00010    10   11   12      2
    12  -0.13419   0.38441  -0.07599   0.05373   45.00000-150.00000   0.00010    11   12   13      2
    13  -0.16710   0.36541  -0.03800   0.05373   45.00000-150.00000   0.00010    12   13   14      2
    14  -0.20000   0.34641   0.00000   0.05373   45.00000-150.00000   0.00010    13   14   15      2
    15  -0.23290   0.32741   0.03800   0.05373   45.00000-150.00000   0.00010    14   15   16      2
    16  -0.26581   0.30841   0.07599   0.05373   45.00000-150.00000   0.00010    15   16   17      2
    17  -0.29871   0.28942   0.11399   0.05373   45.00000-150.00000   0.00010    16   17   18      2
    18  -0.33162   0.27042   0.15198   0.05373   45.00000-150.00000   0.00010    17   18    0      2
    19  -0.33162  -0.27042  -0.15198   0.05373   45.00000 -30.00000   0.00010     0   19   20      3
    20  -0.29871  -0.28942  -0.11399   0.05373   45.00000 -30.00000   0.00010    19   20   21      3
    21  -0.26581  -0.30841  -0.07599   0.05373   45.00000 -30.00000   0.00010    20   21   22      3
    22  -0.23290  -0.32741  -0.03800   0.05373   45.00000 -30.00000   0.00010    21   22   23      3
    23  -0.20000  -0.34641   0.00000   0.05373   45.00000 -30.00000   0.00010    22   23   24      3
    24  -0.16710  -0.36541   0.03800   0.05373   45.00000 -30.00000   0.00010    23   24   25      3
    25  -0.13419  -0.38441   0.07599   0.05373   45.00000 -30.00000   0.00010    24   25   26      3
    26  -0.10129  -0.40340   0.11399   0.05373   45.00000 -30.00000   0.00010    25   26   27      3
    27  -0.06838  -0.42240   0.15198   0.05373   45.00000 -30.00000   0.00010    26   27    0      3
    28   0.40000  -0.15198   0.64802   0.05373   45.00000  90.00000   0.00010     0   28   29      4
    29   0.40000  -0.11399   0.68601   0.05373   45.00000  90.00000   0.00010    28   29   30      4
    30   0.40000  -0.07599   0.72401   0.05373   45.00000  90.00000   0.00010    29   30   31      4
    31   0.40000  -0.03800   0.76200   0.05373   45.00000  90.00000   0.00010    30   31   32      4
    32   0.40000   0.00000   0.80000   0.05373   45.00000  90.00000   0.00010    31   32   33      4
    33   0.40000   0.03800   0.83800   0.05373   45.00000  90.00000   0.00010    32   33   34      4
    34   0.40000   0.07599   0.87599   0.05373   45.00000  90.00000   0.00010    33   34   35      4
    35   0.40000   0.11399   0.91399   0.05373   45.00000  90.00000   0.00010    34   35   36      4
    36   0.40000   0.15198   0.95198   0.05373   45.00000  90.00000   0.00010    35   36    0      4
    37  -0.06838   0.42240   0.64802   0.05373   45.00000-150.00000   0.00010     0   37   38      5
    38  -0.10129   0.40340   0.68601   0.05373   45.00000-150.00000   0.00010    37   38   39      5
    39  -0.13419   0.38441   0.72401   0.05373   45.00000-150.00000   0.00010    38   39   40      5
    40  -0.16710   0.36541   0.76200   0.05373   45.00000-150.00000   0.00010    39   40   41      5
    41  -0.20000   0.34641   0.80000   0.05373   45.00000-150.00000   0.00010    40   41   42      5
    42  -0.23290   0.32741   0.83800   0.05373   45.00000-150.00000   0.00010    41   42   43      5
    43  -0.26581   0.30841   0.87599   0.05373   45.00000-150.00000   0.00010    42   43   44      5
    44  -0.29871   0.28942   0.91399   0.05373   45.00000-150.00000   0.00010    43   44   45      5
    45  -0.33162   0.27042   0.95198   0.05373   45.00000-150.00000   0.00010    44   45    0      5
    46  -0.33162  -0.27042   0.64802   0.05373   45.00000 -30.00000   0.00010     0   46   47      6
    47  -0.29871  -0.28942   0.68601   0.05373   45.00000 -30.00000   0.00010    46   47   48      6
    48  -0.26581  -0.30841   0.72401   0.05373   45.00000 -30.00000   0.00010    47   48   49      6
    49  -0.23290  -0.32741   0.76200   0.05373   45.00000 -30.00000   0.00010    48   49   50      6
    50  -0.20000  -0.34641   0.80000   0.05373   45.00000 -30.00000   0.00010    49   50   51      6
    51  -0.16710  -0.36541   0.83800   0.05373   45.00000 -30.00000   0.00010    50   51   52      6
    52  -0.13419  -0.38441   0.87599   0.05373   45.00000 -30.00000   0.00010    51   52   53      6
    53  -0.10129  -0.40340   0.91399   0.05373   45.00000 -30.00000   0.00010    52   53   54      6
    54  -0.06838  -0.42240   0.95198   0.05373   45.00000 -30.00000   0.00010    53   54    0      6
    55   0.40000  -0.15198   1.44802   0.05373   45.00000  90.00000   0.00010     0   55   56      7
    56   0.40000  -0.11399   1.48601   0.05373   45.00000  90.00000   0.00010    55   56   57      7
    57   0.40000  -0.07599   1.52401   0.05373   45.00000  90.00000   0.00010    56   57   58      7
    58   0.40000  -0.03800   1.56200   0.05373   45.00000  90.00000   0.00010    57   58   59      7
    59   0.40000   0.00000   1.60000   0.05373   45.00000  90.00000   0.00010    58   59   60      7
    60   0.40000   0.03800   1.63800   0.05373   45.00000  90.00000   0.00010    59   60   61      7
    61   0.40000   0.07599   1.67599   0.05373   45.00000  90.00000   0.00010    60   61   62      7
    62   0.40000   0.11399   1.71399   0.05373   45.00000  90.00000   0.00010    61   62   63      7
    63   0.40000   0.15198   1.75198   0.05373   45.00000  90.00000   0.00010    62   63    0      7
    64  -0.06838   0.42240   1.44802   0.05373   45.00000-150.00000   0.00010     0   64   65      8
    65  -0.10129   0.40340   1.48601   0.05373   45.00000-150.00000   0.00010    64   65   66      8
    66  -0.13419   0.38441   1.52401   0.05373   45.00000-150.00000   0.00010    65   66   67      8
    67  -0.16710   0.36541   1.56200   0.05373   45.00000-150.00000   0.00010    66   67   68      8
    68  -0.20000   0.34641   1.60000   0.05373   45.00000-150.00000   0.00010    67   68   69      8
    69  -0.23290   0.32741   1.63800   0.05373   45.00000-150.00000   0.00010    68   69   70      8
    70  -0.26581   0.30841   1.67599   0.05373   45.00000-150.00000   0.00010    69   70   71      8
    71  -0.29871   0.28942   1.71399   0.05373   45.00000-150.00000   0.00010    70   71   72      8
    72  -0.33162   0.27042   1.75198   0.05373   45.00000-150.00000   0.00010    71   72    0      8
    73  -0.33162  -0.27042   1.44802   0.05373   45.00000 -30.00000   0.00010     0   73   74      9
    74  -0.29871  -0.28942   1.48601   0.05373   45.00000 -30.00000   0.00010    73   74   75      9
    75  -0.26581  -0.30841   1.52401   0.05373   45.00000 -30.00000   0.00010    74   75   76      9
    76  -0.23290  -0.32741   1.56200   0.05373   45.00000 -30.00000   0.00010    75   76   77      9
    77  -0.20000  -0.34641   1.60000   0.05373   45.00000 -30.00000   0.00010    76   77   78      9
    78  -0.16710  -0.36541   1.63800   0.05373   45.00000 -30.00000   0.00010    77   78   79      9
    79  -0.13419  -0.38441   1.67599   0.05373   45.00000 -30.00000   0.00010    78   79   80      9
    80  -0.10129  -0.40340   1.71399   0.05373   45.00000 -30.00000   0.00010    79   80   81      9
    81  -0.06838  -0.42240   1.75198   0.05373   45.00000 -30.00000   0.00010    80   81    0      9
    82   0.40000  -0.15198   2.24802   0.05373   45.00000  90.00000   0.00010     0   82   83     10
    83   0.40000  -0.11399   2.28601   0.05373   45.00000  90.00000   0.00010    82   83   84     10
    84   0.40000  -0.07599   2.32401   0.05373   45.00000  90.00000   0.00010    83   84   85     10
    85   0.40000  -0.03800   2.36200   0.05373   45.00000  90.00000   0.00010    84   85   86     10
    86   0.40000   0.00000   2.40000   0.05373   45.00000  90.00000   0.00010    85   86   87     10
    87   0.40000   0.03800   2.43800   0.05373   45.00000  90.00000   0.00010    86   87   88     10
    88   0.40000   0.07599   2.47599   0.05373   45.00000  90.00000   0.00010    87   88   89     10
    89   0.40000   0.11399   2.51399   0.05373   45.00000  90.00000   0.00010    88   89   90     10
    90   0.40000   0.15198   2.55198   0.05373   45.00000  90.00000   0.00010    89   90    0     10
    91  -0.06838   0.42240   2.24802   0.05373   45.00000-150.00000   0.00010     0   91   92     11
    92  -0.10129   0.40340   2.28601   0.05373   45.00000-150.00000   0.00010    91   92   93     11
    93  -0.13419   0.38441   2.32401   0.05373   45.00000-150.00000   0.00010    92   93   94     11
    94  -0.16710   0.36541   2.36200   0.05373   45.00000-150.00000   0.00010    93   94   95     11
    95  -0.20000   0.34641   2.40000   0.05373   45.00000-150.00000   0.00010    94   95   96     11
    96  -0.23290   0.32741   2.43800   0.05373   45.00000-150.00000   0.00010    95   96   97     11
    97  -0.26581   0.30841   2.47599   0.05373   45.00000-150.00000   0.00010    96   97   98     11
    98  -0.29871   0.28942   2.51399   0.05373   45.00000-150.00000   0.00010    97   98   99     11
    99  -0.33162   0.27042   2.55198   0.05373   45.00000-150.00000   0.00010    98   99    0     11
   100  -0.33162  -0.27042   2.24802   0.05373   45.00000 -30.00000   0.00010     0  100  101     12
   101  -0.29871  -0.28942   2.28601   0.05373   45.00000 -30.00000   0.00010   100  101  102     12
   102  -0.26581  -0.30841   2.32401   0.05373   45.00000 -30.00000   0.00010   101  102  103     12
   103  -0.23290  -0.32741   2.36200   0.05373   45.00000 -30.00000   0.00010   102  103  104     12
   104  -0.20000  -0.34641   2.40000   0.05373   45.00000 -30.00000   0.00010   103  104  105     12
   105  -0.16710  -0.36541   2.43800   0.05373   45.00000 -30.00000   0.00010   104  105  106     12
   106  -0.13419  -0.38441   2.47599   0.05373   45.00000 -30.00000   0.00010   105  106  107     12
   107  -0.10129  -0.40340   2.51399   0.05373   45.00000 -30.00000   0.00010   106  107  108     12
   108  -0.06838  -0.42240   2.55198   0.05373   45.00000 -30.00000   0.00010   107  108    0     12






 ***** DATA CARD NO.  1   EX   0     1     5     0  1.00000E+00  0.00000E+00  0.00000E+00  0.00000E+00  0.00000E+00  0.00000E+00
 ***** DATA CARD NO.  2   EX   0     2     5     0  1.00000E+00  0.00000E+00  0.00000E+00  0.00000E+00  0.00000E+00  0.00000E+00
 ***** DATA CARD NO.  3   EX   0     3     5     0  1.00000E+00  0.00000E+00  0.00000E+00  0.00000E+00  0.00000E+00  0.00000E+00
 ***** DATA CARD NO.  4   EX   0     4     5     0  1.00000E+00  0.00000E+00  0.00000E+00  0.00000E+00  0.00000E+00  0.00000E+00
 ***** DATA CARD NO.  5   EX   0     5     5     0  1.00000E+00  0.00000E+00  0.00000E+00  0.00000E+00  0.00000E+00  0.00000E+00
 ***** DATA CARD NO.  6   EX   0     6     5     0  1.00000E+00  0.00000E+00  0.00000E+00  0.00000E+00  0.00000E+00  0.00000E+00
 ***** DATA CARD NO.  7   EX   0     7     5     0  1.00000E+00  0.00000E+00  0.00000E+00  0.00000E+00  0.00000E+00  0.00000E+00
 ***** DATA CARD NO.  8   EX   0     8     5     0  1.00000E+00  0.00000E+00  0.00000E+00  0.00000E+00  0.00000E+00  0.00000E+00
 ***** DATA CARD NO.  9   EX   0     9     5     0  1.00000E+00  0.00000E+00  0.00000E+00  0.00000E+00  0.00000E+00  0.00000E+00
 ***** DATA CARD NO. 10   EX   0    10     5     0  1.00000E+00  0.00000E+00  0.00000E+00  0.00000E+00  0.00000E+00  0.00000E+00
 ***** DATA CARD NO. 11   EX   0    11     5     0  1.00000E+00  0.00000E+00  0.00000E+00  0.00000E+00  0.00000E+00  0.00000E+00
 ***** DATA CARD NO. 12   EX   0    12     5     0  1.00000E+00  0.00000E+00  0.00000E+00  0.00000E+00  0.00000E+00  0.00000E+00
 ***** DATA CARD NO. 13   FR   0     1     0     0  3.00000E+02  0.00000E+00  0.00000E+00  0.00000E+00  0.00000E+00  0.00000E+00
 ***** DATA CARD NO. 14   RP   0   181     1  1000 -1.80000E+02  0.00000E+00  2.00000E+00  1.00000E+00  0.00000E+00  0.00000E+00




                                 - - - - - - FREQUENCY - - - - - -

                                    FREQUENCY= 3.0000E+02 MHZ
                                    WAVELENGTH= 9.9933E-01 METERS




                    APPROXIMATE INTEGRATION EMPLOYED FOR SEGMENTS MORE THAN   1.000 WAVELENGTHS APART



                               - - - STRUCTURE IMPEDANCE LOADING - - -

                                   THIS STRUCTURE IS NOT LOADED



                                  - - - ANTENNA ENVIRONMENT - - -

                                            FREE SPACE



                                - - - MATRIX TIMING - - -

                        FILL=    0.031 SEC.,  FACTOR=    0.016 SEC.



                                          - - - ANTENNA INPUT PARAMETERS - - -

   TAG   SEG.    VOLTAGE (VOLTS)         CURRENT (AMPS)         IMPEDANCE (OHMS)        ADMITTANCE (MHOS)      POWER
   NO.   NO.    REAL        IMAG.       REAL        IMAG.       REAL        IMAG.       REAL        IMAG.     (WATTS)
     1     5 1.00000E+00 0.00000E+00 1.94150E-02 4.13487E-03 4.92718E+01-1.04936E+01 1.94150E-02 4.13487E-03 9.70748E-03
     2    14 1.00000E+00 0.00000E+00 1.94150E-02 4.13487E-03 4.92718E+01-1.04936E+01 1.94150E-02 4.13487E-03 9.70748E-03
     3    23 1.00000E+00 0.00000E+00 1.94150E-02 4.13487E-03 4.92718E+01-1.04936E+01 1.94150E-02 4.13487E-03 9.70748E-03
     4    32 1.00000E+00 0.00000E+00 2.50049E-02 4.92011E-03 3.85015E+01-7.57579E+00 2.50049E-02 4.92011E-03 1.25024E-02
     5    41 1.00000E+00 0.00000E+00 2.50049E-02 4.92011E-03 3.85015E+01-7.57579E+00 2.50049E-02 4.92011E-03 1.25024E-02
     6    50 1.00000E+00 0.00000E+00 2.50049E-02 4.92011E-03 3.85015E+01-7.57579E+00 2.50049E-02 4.92011E-03 1.25024E-02
     7    59 1.00000E+00 0.00000E+00 2.50049E-02 4.92011E-03 3.85015E+01-7.57579E+00 2.50049E-02 4.92011E-03 1.25024E-02
     8    68 1.00000E+00 0.00000E+00 2.50049E-02 4.92011E-03 3.85015E+01-7.57579E+00 2.50049E-02 4.92011E-03 1.25024E-02
     9    77 1.00000E+00 0.00000E+00 2.50049E-02 4.92011E-03 3.85015E+01-7.57579E+00 2.50049E-02 4.92011E-03 1.25024E-02
    10    86 1.00000E+00 0.00000E+00 1.94150E-02 4.13487E-03 4.92718E+01-1.04936E+01 1.94150E-02 4.13487E-03 9.70748E-03
    11    95 1.00000E+00 0.00000E+00 1.94150E-02 4.13487E-03 4.92718E+01-1.04936E+01 1.94150E-02 4.13487E-03 9.70748E-03
    12   104 1.00000E+00 0.00000E+00 1.94150E-02 4.13487E-03 4.92718E+01-1.04936E+01 1.94150E-02 4.13487E-03 9.70748E-03



                             - - - CURRENTS AND LOCATION - - -

                                 DISTANCES IN WAVELENGTHS


  SEG.  TAG    COORD. OF SEG. CENTER     SEG.            - - - CURRENT (AMPS) - - -
  NO.   NO.     X        Y        Z      LENGTH     REAL        IMAG.       MAG.        PHASE
     1    1   0.4003  -0.1521  -0.1521  0.05377   3.8230E-03  6.2986E-04  3.8746E-03    9.356
     2    1   0.4003  -0.1141  -0.1141  0.05377   1.0259E-02  1.7813E-03  1.0413E-02    9.850
     3    1   0.4003  -0.0760  -0.0760  0.05377   1.5211E-02  2.8048E-03  1.5467E-02   10.448
     4    1   0.4003  -0.0380  -0.0380  0.05377   1.8359E-02  3.6442E-03  1.8717E-02   11.227
     5    1   0.4003   0.0000   0.0000  0.05377   1.9415E-02  4.1349E-03  1.9850E-02   12.023
     6    1   0.4003   0.0380   0.0380  0.05377   1.8284E-02  3.6281E-03  1.8640E-02   11.224
     7    1   0.4003   0.0760   0.0760  0.05377   1.5085E-02  2.7782E-03  1.5338E-02   10.435
     8    1   0.4003   0.1141   0.1141  0.05377   1.0129E-02  1.7543E-03  1.0280E-02    9.826
     9    1   0.4003   0.1521   0.1521  0.05377   3.7569E-03  6.1651E-04  3.8072E-03    9.319
    10    2  -0.0684   0.4227  -0.1521  0.05377   3.8230E-03  6.2986E-04  3.8746E-03    9.356
    11    2  -0.1014   0.4037  -0.1141  0.05377   1.0259E-02  1.7813E-03  1.0413E-02    9.850
    12    2  -0.1343   0.3847  -0.0760  0.05377   1.5211E-02  2.8048E-03  1.5467E-02   10.448
    13    2  -0.1672   0.3657  -0.0380  0.05377   1.8359E-02  3.6442E-03  1.8717E-02   11.227
    14    2  -0.2001   0.3466   0.0000  0.05377   1.9415E-02  4.1349E-03  1.9850E-02   12.023
    15    2  -0.2331   0.3276   0.0380  0.05377   1.8284E-02  3.6281E-03  1.8640E-02   11.224
    16    2  -0.2660   0.3086   0.0760  0.05377   1.5085E-02  2.7782E-03  1.5338E-02   10.435
    17    2  -0.2989   0.2896   0.1141  0.05377   1.0129E-02  1.7543E-03  1.0280E-02    9.826
    18    2  -0.3318   0.2706   0.1521  0.05377   3.7569E-03  6.1651E-04  3.8072E-03    9.319
    19    3  -0.3318  -0.2706  -0.1521  0.05377   3.8230E-03  6.2986E-04  3.8746E-03    9.356
    20    3  -0.2989  -0.2896  -0.1141  0.05377   1.0259E-02  1.7813E-03  1.0413E-02    9.850
    21    3  -0.2660  -0.3086  -0.0760  0.05377   1.5211E-02  2.8048E-03  1.5467E-02   10.448
    22    3  -0.2331  -0.3276  -0.0380  0.05377   1.8359E-02  3.6442E-03  1.8717E-02   11.227
    23    3  -0.2001  -0.3466   0.0000  0.05377   1.9415E-02  4.1349E-03  1.9850E-02   12.023
    24    3  -0.1672  -0.3657   0.0380  0.05377   1.8284E-02  3.6281E-03  1.8640E-02   11.224
    25    3  -0.1343  -0.3847   0.0760  0.05377   1.5085E-02  2.7782E-03  1.5338E-02   10.435
    26    3  -0.1014  -0.4037   0.1141  0.05377   1.0129E-02  1.7543E-03  1.0280E-02    9.826
    27    3  -0.0684  -0.4227   0.1521  0.05377   3.7569E-03  6.1651E-04  3.8072E-03    9.319
    28    4   0.4003  -0.1521   0.6485  0.05377   4.8870E-03  7.8628E-04  4.9498E-03    9.140
    29    4   0.4003  -0.1141   0.6865  0.05377   1.3141E-02  2.1998E-03  1.3324E-02    9.503
    30    4   0.4003  -0.0760   0.7245  0.05377   1.9522E-02  3.4237E-03  1.9820E-02    9.947
    31    4   0.4003  -0.0380   0.7625  0.05377   2.3604E-02  4.3890E-03  2.4009E-02   10.533
    32    4   0.4003   0.0000   0.8005  0.05377   2.5005E-02  4.9201E-03  2.5484E-02   11.132
    33    4   0.4003   0.0380   0.8386  0.05377   2.3587E-02  4.3648E-03  2.3988E-02   10.484
    34    4   0.4003   0.0760   0.8766  0.05377   1.9494E-02  3.3832E-03  1.9785E-02    9.846
    35    4   0.4003   0.1141   0.9146  0.05377   1.3112E-02  2.1583E-03  1.3289E-02    9.347
    36    4   0.4003   0.1521   0.9526  0.05377   4.8722E-03  7.6528E-04  4.9319E-03    8.927
    37    5  -0.0684   0.4227   0.6485  0.05377   4.8870E-03  7.8628E-04  4.9498E-03    9.140
    38    5  -0.1014   0.4037   0.6865  0.05377   1.3141E-02  2.1998E-03  1.3324E-02    9.503
    39    5  -0.1343   0.3847   0.7245  0.05377   1.9522E-02  3.4237E-03  1.9820E-02    9.947
    40    5  -0.1672   0.3657   0.7625  0.05377   2.3604E-02  4.3890E-03  2.4009E-02   10.533
    41    5  -0.2001   0.3466   0.8005  0.05377   2.5005E-02  4.9201E-03  2.5484E-02   11.132
    42    5  -0.2331   0.3276   0.8386  0.05377   2.3587E-02  4.3648E-03  2.3988E-02   10.484
    43    5  -0.2660   0.3086   0.8766  0.05377   1.9494E-02  3.3832E-03  1.9785E-02    9.846
    44    5  -0.2989   0.2896   0.9146  0.05377   1.3112E-02  2.1583E-03  1.3289E-02    9.347
    45    5  -0.3318   0.2706   0.9526  0.05377   4.8722E-03  7.6528E-04  4.9319E-03    8.927
    46    6  -0.3318  -0.2706   0.6485  0.05377   4.8870E-03  7.8628E-04  4.9498E-03    9.140
    47    6  -0.2989  -0.2896   0.6865  0.05377   1.3141E-02  2.1998E-03  1.3324E-02    9.503
    48    6  -0.2660  -0.3086   0.7245  0.05377   1.9522E-02  3.4237E-03  1.9820E-02    9.947
    49    6  -0.2331  -0.3276   0.7625  0.05377   2.3604E-02  4.3890E-03  2.4009E-02   10.533
    50    6  -0.2001  -0.3466   0.8005  0.05377   2.5005E-02  4.9201E-03  2.5484E-02   11.132
    51    6  -0.1672  -0.3657   0.8386  0.05377   2.3587E-02  4.3648E-03  2.3988E-02   10.484
    52    6  -0.1343  -0.3847   0.8766  0.05377   1.9494E-02  3.3832E-03  1.9785E-02    9.846
    53    6  -0.1014  -0.4037   0.9146  0.05377   1.3112E-02  2.1583E-03  1.3289E-02    9.347
    54    6  -0.0684  -0.4227   0.9526  0.05377   4.8722E-03  7.6528E-04  4.9319E-03    8.927
    55    7   0.4003  -0.1521   1.4490  0.05377   4.8722E-03  7.6528E-04  4.9319E-03    8.927
    56    7   0.4003  -0.1141   1.4870  0.05377   1.3112E-02  2.1583E-03  1.3289E-02    9.347
    57    7   0.4003  -0.0760   1.5250  0.05377   1.9494E-02  3.3832E-03  1.9785E-02    9.846
    58    7   0.4003  -0.0380   1.5630  0.05377   2.3587E-02  4.3648E-03  2.3988E-02   10.484
    59    7   0.4003   0.0000   1.6011  0.05377   2.5005E-02  4.9201E-03  2.5484E-02   11.132
    60    7   0.4003   0.0380   1.6391  0.05377   2.3604E-02  4.3890E-03  2.4009E-02   10.533
    61    7   0.4003   0.0760   1.6771  0.05377   1.9522E-02  3.4237E-03  1.9820E-02    9.947
    62    7   0.4003   0.1141   1.7151  0.05377   1.3141E-02  2.1998E-03  1.3324E-02    9.503
    63    7   0.4003   0.1521   1.7531  0.05377   4.8870E-03  7.8628E-04  4.9498E-03    9.140
    64    8  -0.0684   0.4227   1.4490  0.05377   4.8722E-03  7.6528E-04  4.9319E-03    8.927
    65    8  -0.1014   0.4037   1.4870  0.05377   1.3112E-02  2.1583E-03  1.3289E-02    9.347
    66    8  -0.1343   0.3847   1.5250  0.05377   1.9494E-02  3.3832E-03  1.9785E-02    9.846
    67    8  -0.1672   0.3657   1.5630  0.05377   2.3587E-02  4.3648E-03  2.3988E-02   10.484
    68    8  -0.2001   0.3466   1.6011  0.05377   2.5005E-02  4.9201E-03  2.5484E-02   11.132
    69    8  -0.2331   0.3276   1.6391  0.05377   2.3604E-02  4.3890E-03  2.4009E-02   10.533
    70    8  -0.2660   0.3086   1.6771  0.05377   1.9522E-02  3.4237E-03  1.9820E-02    9.947
    71    8  -0.2989   0.2896   1.7151  0.05377   1.3141E-02  2.1998E-03  1.3324E-02    9.503
    72    8  -0.3318   0.2706   1.7531  0.05377   4.8870E-03  7.8628E-04  4.9498E-03    9.140
    73    9  -0.3318  -0.2706   1.4490  0.05377   4.8722E-03  7.6528E-04  4.9319E-03    8.927
    74    9  -0.2989  -0.2896   1.4870  0.05377   1.3112E-02  2.1583E-03  1.3289E-02    9.347
    75    9  -0.2660  -0.3086   1.5250  0.05377   1.9494E-02  3.3832E-03  1.9785E-02    9.846
    76    9  -0.2331  -0.3276   1.5630  0.05377   2.3587E-02  4.3648E-03  2.3988E-02   10.484
    77    9  -0.2001  -0.3466   1.6011  0.05377   2.5005E-02  4.9201E-03  2.5484E-02   11.132
    78    9  -0.1672  -0.3657   1.6391  0.05377   2.3604E-02  4.3890E-03  2.4009E-02   10.533
    79    9  -0.1343  -0.3847   1.6771  0.05377   1.9522E-02  3.4237E-03  1.9820E-02    9.947
    80    9  -0.1014  -0.4037   1.7151  0.05377   1.3141E-02  2.1998E-03  1.3324E-02    9.503
    81    9  -0.0684  -0.4227   1.7531  0.05377   4.8870E-03  7.8628E-04  4.9498E-03    9.140
    82   10   0.4003  -0.1521   2.2495  0.05377   3.7569E-03  6.1651E-04  3.8072E-03    9.319
    83   10   0.4003  -0.1141   2.2875  0.05377   1.0129E-02  1.7543E-03  1.0280E-02    9.826
    84   10   0.4003  -0.0760   2.3256  0.05377   1.5085E-02  2.7782E-03  1.5338E-02   10.435
    85   10   0.4003  -0.0380   2.3636  0.05377   1.8284E-02  3.6281E-03  1.8640E-02   11.224
    86   10   0.4003   0.0000   2.4016  0.05377   1.9415E-02  4.1349E-03  1.9850E-02   12.023
    87   10   0.4003   0.0380   2.4396  0.05377   1.8359E-02  3.6442E-03  1.8717E-02   11.227
    88   10   0.4003   0.0760   2.4776  0.05377   1.5211E-02  2.8048E-03  1.5467E-02   10.448
    89   10   0.4003   0.1141   2.5157  0.05377   1.0259E-02  1.7813E-03  1.0413E-02    9.850
    90   10   0.4003   0.1521   2.5537  0.05377   3.8230E-03  6.2986E-04  3.8746E-03    9.356
    91   11  -0.0684   0.4227   2.2495  0.05377   3.7569E-03  6.1651E-04  3.8072E-03    9.319
    92   11  -0.1014   0.4037   2.2875  0.05377   1.0129E-02  1.7543E-03  1.0280E-02    9.826
    93   11  -0.1343   0.3847   2.3256  0.05377   1.5085E-02  2.7782E-03  1.5338E-02   10.435
    94   11  -0.1672   0.3657   2.3636  0.05377   1.8284E-02  3.6281E-03  1.8640E-02   11.224
    95   11  -0.2001   0.3466   2.4016  0.05377   1.9415E-02  4.1349E-03  1.9850E-02   12.023
    96   11  -0.2331   0.3276   2.4396  0.05377   1.8359E-02  3.6442E-03  1.8717E-02   11.227
    97   11  -0.2660   0.3086   2.4776  0.05377   1.5211E-02  2.8048E-03  1.5467E-02   10.448
    98   11  -0.2989   0.2896   2.5157  0.05377   1.0259E-02  1.7813E-03  1.0413E-02    9.850
    99   11  -0.3318   0.2706   2.5537  0.05377   3.8230E-03  6.2986E-04  3.8746E-03    9.356
   100   12  -0.3318  -0.2706   2.2495  0.05377   3.7569E-03  6.1651E-04  3.8072E-03    9.319
   101   12  -0.2989  -0.2896   2.2875  0.05377   1.0129E-02  1.7543E-03  1.0280E-02    9.826
   102   12  -0.2660  -0.3086   2.3256  0.05377   1.5085E-02  2.7782E-03  1.5338E-02   10.435
   103   12  -0.2331  -0.3276   2.3636  0.05377   1.8284E-02  3.6281E-03  1.8640E-02   11.224
   104   12  -0.2001  -0.3466   2.4016  0.05377   1.9415E-02  4.1349E-03  1.9850E-02   12.023
   105   12  -0.1672  -0.3657   2.4396  0.05377   1.8359E-02  3.6442E-03  1.8717E-02   11.227
   106   12  -0.1343  -0.3847   2.4776  0.05377   1.5211E-02  2.8048E-03  1.5467E-02   10.448
   107   12  -0.1014  -0.4037   2.5157  0.05377   1.0259E-02  1.7813E-03  1.0413E-02    9.850
   108   12  -0.0684  -0.4227   2.5537  0.05377   3.8230E-03  6.2986E-04  3.8746E-03    9.356



                                        - - - POWER BUDGET - - -

                                           INPUT POWER   = 1.3326E-01 WATTS
                                           RADIATED POWER= 1.3326E-01 WATTS
                                           STRUCTURE LOSS= 0.0000E+00 WATTS
                                           NETWORK LOSS  = 0.0000E+00 WATTS
                                           EFFICIENCY    = 100.00 PERCENT



                                                - - - RADIATION PATTERNS - - -

  - - ANGLES - -           - POWER GAINS -       - - - POLARIZATION - - -    - - - E(THETA) - - -    - - - E(PHI) - - -
  THETA     PHI        VERT.   HOR.    TOTAL      AXIAL     TILT   SENSE     MAGNITUDE    PHASE      MAGNITUDE    PHASE 
 DEGREES  DEGREES       DB      DB      DB        RATIO     DEG.              VOLTS/M    DEGREES      VOLTS/M    DEGREES
 -180.00     0.00    -999.99 -999.99 -999.99    0.00000     0.00            5.12915E-11  -150.72    4.21066E-11   113.38
 -178.00     0.00     -27.00  -25.94  -23.42    0.88317   -84.33  RIGHT     1.26317E-01    28.16    1.42677E-01   -63.24
 -176.00     0.00     -21.23  -20.14  -17.64    0.87345   -79.09  RIGHT     2.45403E-01    29.20    2.78218E-01   -63.69
 -174.00     0.00     -18.14  -16.99  -14.52    0.85854   -74.96  RIGHT     3.50334E-01    30.77    3.99663E-01   -63.62
 -172.00     0.00     -16.26  -15.04  -12.60    0.83981   -71.93  RIGHT     4.34822E-01    32.87    5.00416E-01   -63.04
 -170.00     0.00     -15.16  -13.84  -11.44    0.81828   -69.79  RIGHT     4.93530E-01    35.51    5.74454E-01   -61.95
 -168.00     0.00     -14.67  -13.23  -10.88    0.79466   -68.33  RIGHT     5.22367E-01    38.68    6.16557E-01   -60.37
 -166.00     0.00     -14.73  -13.14  -10.85    0.76934   -67.36  RIGHT     5.18766E-01    42.37    6.22557E-01   -58.31
 -164.00     0.00     -15.37  -13.61  -11.39    0.74257   -66.75  RIGHT     4.81911E-01    46.56    5.89622E-01   -55.80
 -162.00     0.00     -16.71  -14.76  -12.62    0.71446   -66.41  RIGHT     4.12909E-01    51.19    5.16539E-01   -52.92
 -160.00     0.00     -19.06  -16.90  -14.84    0.68508   -66.27  RIGHT     3.14870E-01    56.09    4.04005E-01   -49.84
 -158.00     0.00     -23.32  -20.90  -18.93    0.65438   -66.37  RIGHT     1.92927E-01    60.56    2.54933E-01   -47.23
 -156.00     0.00     -34.23  -31.44  -29.60    0.62314   -67.38  RIGHT     5.49517E-02    56.36    7.57412E-02   -52.85
 -154.00     0.00     -29.34  -26.54  -24.71    0.59441   -65.38  RIGHT     9.63985E-02   -92.36    1.33119E-01   155.25
 -152.00     0.00     -21.29  -18.11  -16.40    0.55825   -65.96  RIGHT     2.43764E-01   -89.55    3.51539E-01   155.80
 -150.00     0.00     -17.39  -13.86  -12.27    0.52294   -66.23  RIGHT     3.81744E-01   -82.09    5.72960E-01   160.78
 -148.00     0.00     -15.03  -11.15   -9.66    0.48688   -66.45  RIGHT     5.00674E-01   -73.23    7.83261E-01   166.92
 -146.00     0.00     -13.57   -9.31   -7.93    0.44992   -66.65  RIGHT     5.92345E-01   -63.41    9.67790E-01   173.76
 -144.00     0.00     -12.76   -8.10   -6.83    0.41208   -66.84  RIGHT     6.50391E-01   -52.74    1.11181E+00  -178.82
 -142.00     0.00     -12.49   -7.43   -6.25    0.37342   -67.01  RIGHT     6.70826E-01   -41.24    1.20154E+00  -170.89
 -140.00     0.00     -12.74   -7.26   -6.18    0.33401   -67.15  RIGHT     6.52389E-01   -28.90    1.22528E+00  -162.49
 -138.00     0.00     -13.51   -7.63   -6.63    0.29395   -67.27  RIGHT     5.96585E-01   -15.72    1.17472E+00  -153.63
 -136.00     0.00     -14.92   -8.63   -7.72    0.25332   -67.37  RIGHT     5.07411E-01    -1.67    1.04611E+00  -144.35
 -134.00     0.00     -17.19  -10.53   -9.68    0.21224   -67.45  RIGHT     3.90776E-01    13.23    8.41291E-01  -134.66
 -132.00     0.00     -20.94  -13.93  -13.14    0.17071   -67.53  RIGHT     2.53754E-01    28.96    5.68416E-01  -124.57
 -130.00     0.00     -28.70  -21.34  -20.61    0.12811   -67.72  RIGHT     1.03856E-01    45.43    2.42274E-01  -114.20
 -128.00     0.00     -34.80  -27.74  -26.96    0.09400   -66.55  RIGHT     5.14193E-02  -117.18    1.15940E-01    77.38
 -126.00     0.00     -22.81  -15.41  -14.69    0.04940   -67.03  RIGHT     2.04545E-01   -99.58    4.79407E-01    88.27
 -124.00     0.00     -18.21  -10.78  -10.06    0.00846   -66.97  RIGHT     3.47396E-01   -81.52    8.17139E-01    99.82
 -122.00     0.00     -15.58   -8.23   -7.50    0.03149   -66.83  LEFT      4.70347E-01   -63.27    1.09591E+00   111.75
 -120.00     0.00     -14.04   -6.86   -6.10    0.07043   -66.62  LEFT      5.61478E-01   -44.97    1.28269E+00   124.03
 -118.00     0.00     -13.37   -6.44   -5.64    0.10818   -66.38  LEFT      6.06372E-01   -26.75    1.34731E+00   136.65
 -116.00     0.00     -13.63   -6.98   -6.13    0.14451   -66.09  LEFT      5.88839E-01    -8.64    1.26526E+00   149.65
 -114.00     0.00     -15.18   -8.85   -7.94    0.17921   -65.77  LEFT      4.92622E-01     9.43    1.02016E+00   163.11
 -112.00     0.00     -19.37  -13.38  -12.40    0.21205   -65.44  LEFT      3.03885E-01    28.04    6.06039E-01   177.61
 -110.00     0.00     -42.84  -37.03  -36.02    0.25893   -65.98  LEFT      2.03845E-02    92.09    3.98061E-02  -124.64
 -108.00     0.00     -17.43  -12.15  -11.02    0.27130   -64.47  LEFT      3.80061E-01  -123.11    6.97580E-01    19.91
 -106.00     0.00     -10.27   -5.29   -4.09    0.29713   -64.09  LEFT      8.66931E-01  -105.10    1.53806E+00    35.24
 -104.00     0.00      -5.92   -1.22    0.05    0.32033   -63.68  LEFT      1.42926E+00   -88.21    2.45571E+00    49.86
 -102.00     0.00      -2.84    1.61    2.94    0.34071   -63.29  LEFT      2.03826E+00   -71.75    3.40276E+00    64.43
 -100.00     0.00      -0.54    3.70    5.09    0.35813   -62.92  LEFT      2.65714E+00   -55.55    4.32683E+00    79.07
  -98.00     0.00       1.20    5.25    6.69    0.37250   -62.59  LEFT      3.24417E+00   -39.57    5.17448E+00    93.81
  -96.00     0.00       2.47    6.38    7.86    0.38374   -62.31  LEFT      3.75663E+00   -23.79    5.89505E+00   108.65
  -94.00     0.00       3.35    7.16    8.67    0.39180   -62.11  LEFT      4.15518E+00    -8.19    6.44446E+00   123.58
  -92.00     0.00       3.86    7.61    9.14    0.39665   -61.98  LEFT      4.40809E+00     7.20    6.78855E+00   138.58
  -90.00     0.00       4.03    7.76    9.29    0.39826   -61.94  LEFT      4.49478E+00    22.40    6.90572E+00   153.65
  -88.00     0.00       3.86    7.61    9.14    0.39665   -61.98  LEFT      4.40809E+00    37.38    6.78855E+00   168.76
  -86.00     0.00       3.35    7.16    8.67    0.39180   -62.11  LEFT      4.15518E+00    52.12    6.44446E+00  -176.11
  -84.00     0.00       2.47    6.38    7.86    0.38374   -62.31  LEFT      3.75663E+00    66.59    5.89505E+00  -160.98
  -82.00     0.00       1.20    5.25    6.69    0.37250   -62.59  LEFT      3.24417E+00    80.76    5.17448E+00  -145.86
  -80.00     0.00      -0.54    3.70    5.09    0.35813   -62.92  LEFT      2.65714E+00    94.58    4.32683E+00  -130.80
  -78.00     0.00      -2.84    1.61    2.94    0.34071   -63.29  LEFT      2.03826E+00   108.01    3.40276E+00  -115.82
  -76.00     0.00      -5.92   -1.22    0.05    0.32033   -63.68  LEFT      1.42926E+00   120.95    2.45571E+00  -100.98
  -74.00     0.00     -10.27   -5.29   -4.09    0.29713   -64.09  LEFT      8.66931E-01   133.21    1.53806E+00   -86.45
  -72.00     0.00     -17.43  -12.15  -11.02    0.27130   -64.47  LEFT      3.80061E-01   144.06    6.97580E-01   -72.92
  -70.00     0.00     -42.84  -37.03  -36.02    0.25893   -65.98  LEFT      2.03845E-02    27.80    3.98061E-02   171.06
  -68.00     0.00     -19.37  -13.38  -12.40    0.21205   -65.44  LEFT      3.03885E-01    -8.09    6.06039E-01   141.49
  -66.00     0.00     -15.18   -8.85   -7.94    0.17921   -65.77  LEFT      4.92622E-01     1.09    1.02016E+00   154.77
  -64.00     0.00     -13.63   -6.98   -6.13    0.14451   -66.09  LEFT      5.88839E-01    10.37    1.26526E+00   168.65
  -62.00     0.00     -13.37   -6.44   -5.64    0.10818   -66.38  LEFT      6.06372E-01    19.15    1.34731E+00  -177.45
  -60.00     0.00     -14.04   -6.86   -6.10    0.07043   -66.62  LEFT      5.61478E-01    27.32    1.28269E+00  -163.68
  -58.00     0.00     -15.58   -8.23   -7.50    0.03149   -66.83  LEFT      4.70347E-01    34.89    1.09591E+00  -150.09
  -56.00     0.00     -18.21  -10.78  -10.06    0.00846   -66.97  RIGHT     3.47396E-01    41.94    8.17139E-01  -136.71
  -54.00     0.00     -22.81  -15.41  -14.69    0.04940   -67.03  RIGHT     2.04545E-01    48.61    4.79407E-01  -123.55
  -52.00     0.00     -34.80  -27.74  -26.96    0.09400   -66.55  RIGHT     5.14193E-02    55.11    1.15940E-01  -110.33
  -50.00     0.00     -28.70  -21.34  -20.61    0.12811   -67.72  RIGHT     1.03856E-01  -118.83    2.42274E-01    81.54
  -48.00     0.00     -20.94  -13.93  -13.14    0.17071   -67.53  RIGHT     2.53754E-01  -112.52    5.68416E-01    93.94
  -46.00     0.00     -17.19  -10.53   -9.68    0.21224   -67.45  RIGHT     3.90776E-01  -106.18    8.41291E-01   105.93
  -44.00     0.00     -14.92   -8.63   -7.72    0.25332   -67.37  RIGHT     5.07411E-01   -99.74    1.04611E+00   117.57
  -42.00     0.00     -13.51   -7.63   -6.63    0.29395   -67.27  RIGHT     5.96585E-01   -93.21    1.17472E+00   128.87
  -40.00     0.00     -12.74   -7.26   -6.18    0.33401   -67.15  RIGHT     6.52389E-01   -86.60    1.22528E+00   139.82
  -38.00     0.00     -12.49   -7.43   -6.25    0.37342   -67.01  RIGHT     6.70826E-01   -79.94    1.20154E+00   150.41
  -36.00     0.00     -12.76   -8.10   -6.83    0.41208   -66.84  RIGHT     6.50391E-01   -73.29    1.11181E+00   160.64
  -34.00     0.00     -13.57   -9.31   -7.93    0.44992   -66.65  RIGHT     5.92345E-01   -66.65    9.67790E-01   170.53
  -32.00     0.00     -15.03  -11.15   -9.66    0.48688   -66.45  RIGHT     5.00674E-01   -60.03    7.83261E-01  -179.88
  -30.00     0.00     -17.39  -13.86  -12.27    0.52294   -66.23  RIGHT     3.81744E-01   -53.34    5.72960E-01  -170.48
  -28.00     0.00     -21.29  -18.11  -16.40    0.55825   -65.96  RIGHT     2.43764E-01   -46.18    3.51539E-01  -160.82
  -26.00     0.00     -29.34  -26.54  -24.71    0.59441   -65.38  RIGHT     9.63985E-02   -35.28    1.33119E-01  -147.67
  -24.00     0.00     -34.23  -31.44  -29.60    0.62314   -67.38  RIGHT     5.49517E-02   126.19    7.57412E-02    16.97
  -22.00     0.00     -23.32  -20.90  -18.93    0.65438   -66.37  RIGHT     1.92927E-01   142.18    2.54933E-01    34.39
  -20.00     0.00     -19.06  -16.90  -14.84    0.68508   -66.27  RIGHT     3.14870E-01   148.53    4.04005E-01    42.60
  -18.00     0.00     -16.71  -14.76  -12.62    0.71446   -66.41  RIGHT     4.12909E-01   153.45    5.16539E-01    49.34
  -16.00     0.00     -15.37  -13.61  -11.39    0.74257   -66.75  RIGHT     4.81911E-01   157.64    5.89622E-01    55.28
  -14.00     0.00     -14.73  -13.14  -10.85    0.76934   -67.36  RIGHT     5.18766E-01   161.26    6.22557E-01    60.59
  -12.00     0.00     -14.67  -13.23  -10.88    0.79466   -68.33  RIGHT     5.22367E-01   164.36    6.16557E-01    65.32
  -10.00     0.00     -15.16  -13.84  -11.44    0.81828   -69.79  RIGHT     4.93530E-01   166.95    5.74454E-01    69.49
   -8.00     0.00     -16.26  -15.04  -12.60    0.83981   -71.93  RIGHT     4.34822E-01   169.03    5.00416E-01    73.13
   -6.00     0.00     -18.14  -16.99  -14.52    0.85854   -74.96  RIGHT     3.50334E-01   170.61    3.99663E-01    76.22
   -4.00     0.00     -21.23  -20.14  -17.64    0.87345   -79.09  RIGHT     2.45403E-01   171.67    2.78218E-01    78.78
   -2.00     0.00     -27.00  -25.94  -23.42    0.88317   -84.33  RIGHT     1.26317E-01   172.21    1.42677E-01    80.81
    0.00     0.00    -999.99 -999.99 -999.99    0.00000     0.00            9.72294E-12   175.99    1.05770E-11   179.58
    2.00     0.00     -27.00  -25.94  -23.43    0.88260    83.74  RIGHT     1.26303E-01    -8.31    1.42676E-01   -96.75
    4.00     0.00     -21.23  -20.14  -17.64    0.87241    78.59  RIGHT     2.45352E-01    -9.38    2.78212E-01   -96.34
    6.00     0.00     -18.14  -16.99  -14.52    0.85717    74.57  RIGHT     3.50225E-01   -11.01    3.99649E-01   -96.47
    8.00     0.00     -16.26  -15.04  -12.60    0.83823    71.62  RIGHT     4.34644E-01   -13.21    5.00394E-01   -97.15
   10.00     0.00     -15.16  -13.84  -11.44    0.81658    69.56  RIGHT     4.93280E-01   -15.98    5.74425E-01   -98.37
   12.00     0.00     -14.67  -13.23  -10.88    0.79289    68.15  RIGHT     5.22054E-01   -19.34    6.16522E-01  -100.15
   14.00     0.00     -14.73  -13.14  -10.85    0.76754    67.21  RIGHT     5.18409E-01   -23.31    6.22522E-01  -102.49
   16.00     0.00     -15.37  -13.61  -11.39    0.74076    66.64  RIGHT     4.81539E-01   -27.93    5.89593E-01  -105.42
   18.00     0.00     -16.72  -14.76  -12.62    0.71267    66.32  RIGHT     4.12555E-01   -33.27    5.16524E-01  -109.01
   20.00     0.00     -19.07  -16.90  -14.84    0.68326    66.21  RIGHT     3.14570E-01   -39.50    4.04012E-01  -113.43
   22.00     0.00     -23.33  -20.90  -18.93    0.65233    66.32  RIGHT     1.92698E-01   -47.28    2.54972E-01  -119.33
   24.00     0.00     -34.27  -31.43  -29.61    0.61493    67.24  RIGHT     5.46578E-02   -64.33    7.58278E-02  -134.49
   26.00     0.00     -29.37  -26.55  -24.72    0.58974    65.23  RIGHT     9.61101E-02   130.37    1.33014E-01    63.18
   28.00     0.00     -21.30  -18.11  -16.41    0.55617    65.89  RIGHT     2.43417E-01   117.39    3.51381E-01    52.24
   30.00     0.00     -17.40  -13.87  -12.27    0.52128    66.18  RIGHT     3.81284E-01   107.46    5.72756E-01    44.76
   32.00     0.00     -15.04  -11.15   -9.66    0.48542    66.41  RIGHT     5.00124E-01    97.51    7.83017E-01    37.51
   34.00     0.00     -13.58   -9.31   -7.93    0.44863    66.62  RIGHT     5.91754E-01    87.08    9.67515E-01    30.04
   36.00     0.00     -12.77   -8.11   -6.83    0.41096    66.81  RIGHT     6.49818E-01    76.03    1.11152E+00    22.23
   38.00     0.00     -12.50   -7.43   -6.26    0.37247    66.98  RIGHT     6.70336E-01    64.27    1.20124E+00    14.03
   40.00     0.00     -12.74   -7.26   -6.18    0.33325    67.13  RIGHT     6.52035E-01    51.75    1.22500E+00     5.44
   42.00     0.00     -13.51   -7.63   -6.63    0.29342    67.26  RIGHT     5.96403E-01    38.44    1.17448E+00    -3.56
   44.00     0.00     -14.92   -8.64   -7.72    0.25309    67.36  RIGHT     5.07406E-01    24.32    1.04592E+00   -12.96
   46.00     0.00     -17.18  -10.53   -9.68    0.21243    67.44  RIGHT     3.90922E-01     9.37    8.41154E-01   -22.76
   48.00     0.00     -20.93  -13.93  -13.14    0.17170    67.52  RIGHT     2.53994E-01    -6.35    5.68335E-01   -32.95
   50.00     0.00     -28.67  -21.34  -20.60    0.13182    67.72  RIGHT     1.04118E-01   -22.69    2.42243E-01   -43.62
   52.00     0.00     -34.84  -27.74  -26.97    0.08399    66.54  RIGHT     5.12095E-02   139.25    1.15938E-01   126.21
   54.00     0.00     -22.81  -15.41  -14.69    0.04676    67.03  RIGHT     2.04428E-01   122.04    4.79391E-01   114.61
   56.00     0.00     -18.21  -10.78  -10.06    0.00695    66.97  RIGHT     3.47379E-01   104.10    8.17134E-01   103.00
   58.00     0.00     -15.58   -8.23   -7.50    0.03246    66.83  LEFT      4.70396E-01    85.97    1.09594E+00    91.10
   60.00     0.00     -14.04   -6.86   -6.10    0.07105    66.63  LEFT      5.61529E-01    67.84    1.28277E+00    78.93
   62.00     0.00     -13.37   -6.44   -5.63    0.10852    66.38  LEFT      6.06359E-01    49.86    1.34745E+00    66.51
   64.00     0.00     -13.63   -6.98   -6.13    0.14463    66.10  LEFT      5.88722E-01    32.15    1.26545E+00    53.89
   66.00     0.00     -15.18   -8.85   -7.94    0.17912    65.78  LEFT      4.92414E-01    14.88    1.02038E+00    41.20
   68.00     0.00     -19.38  -13.37  -12.40    0.21176    65.46  LEFT      3.03657E-01    -1.38    6.06236E-01    29.03
   70.00     0.00     -43.14  -37.01  -36.06    0.22423    66.15  LEFT      1.96831E-02    26.97    3.98952E-02    59.52
   72.00     0.00     -17.44  -12.15  -11.03    0.27034    64.47  LEFT      3.79712E-01   139.72    6.97609E-01   176.59
   74.00     0.00     -10.27   -5.28   -4.09    0.29622    64.10  LEFT      8.66023E-01   124.34    1.53831E+00   163.91
   76.00     0.00      -5.93   -1.22    0.04    0.31935    63.70  LEFT      1.42756E+00   108.30    2.45624E+00   150.13
   78.00     0.00      -2.85    1.61    2.94    0.33964    63.31  LEFT      2.03557E+00    92.23    3.40363E+00   135.96
   80.00     0.00      -0.55    3.70    5.09    0.35698    62.94  LEFT      2.65336E+00    76.27    4.32807E+00   121.55
   82.00     0.00       1.18    5.25    6.69    0.37128    62.62  LEFT      3.23929E+00    60.43    5.17607E+00   106.95
   84.00     0.00       2.46    6.39    7.86    0.38247    62.35  LEFT      3.75075E+00    44.74    5.89697E+00    92.20
   86.00     0.00       3.33    7.16    8.67    0.39049    62.15  LEFT      4.14849E+00    29.20    6.44664E+00    77.32
   88.00     0.00       3.85    7.61    9.14    0.39532    62.02  LEFT      4.40088E+00    13.83    6.79090E+00    62.35
   90.00     0.00       4.01    7.76    9.29    0.39693    61.98  LEFT      4.48738E+00    -1.35    6.90812E+00    47.29
   92.00     0.00       3.85    7.61    9.14    0.39532    62.02  LEFT      4.40088E+00   -16.34    6.79090E+00    32.18
   94.00     0.00       3.33    7.16    8.67    0.39049    62.15  LEFT      4.14849E+00   -31.11    6.44664E+00    17.01
   96.00     0.00       2.46    6.39    7.86    0.38247    62.35  LEFT      3.75075E+00   -45.64    5.89697E+00     1.82
   98.00     0.00       1.18    5.25    6.69    0.37128    62.62  LEFT      3.23929E+00   -59.90    5.17607E+00   -13.38
  100.00     0.00      -0.55    3.70    5.09    0.35698    62.94  LEFT      2.65336E+00   -73.87    4.32807E+00   -28.58
  102.00     0.00      -2.85    1.61    2.94    0.33964    63.31  LEFT      2.03557E+00   -87.52    3.40363E+00   -43.79
  104.00     0.00      -5.93   -1.22    0.04    0.31935    63.70  LEFT      1.42756E+00  -100.86    2.45624E+00   -59.03
  106.00     0.00     -10.27   -5.28   -4.09    0.29622    64.10  LEFT      8.66023E-01  -113.97    1.53831E+00   -74.40
  108.00     0.00     -17.44  -12.15  -11.03    0.27034    64.47  LEFT      3.79712E-01  -127.45    6.97609E-01   -90.58
  110.00     0.00     -43.14  -37.01  -36.06    0.22423    66.15  LEFT      1.96831E-02    91.26    3.98952E-02   123.81
  112.00     0.00     -19.38  -13.37  -12.40    0.21176    65.46  LEFT      3.03657E-01    34.75    6.06236E-01    65.15
  114.00     0.00     -15.18   -8.85   -7.94    0.17912    65.78  LEFT      4.92414E-01    23.22    1.02038E+00    49.54
  116.00     0.00     -13.63   -6.98   -6.13    0.14463    66.10  LEFT      5.88722E-01    13.14    1.26545E+00    34.88
  118.00     0.00     -13.37   -6.44   -5.63    0.10852    66.38  LEFT      6.06359E-01     3.96    1.34745E+00    20.62
  120.00     0.00     -14.04   -6.86   -6.10    0.07105    66.63  LEFT      5.61529E-01    -4.45    1.28277E+00     6.65
  122.00     0.00     -15.58   -8.23   -7.50    0.03246    66.83  LEFT      4.70396E-01   -12.18    1.09594E+00    -7.05
  124.00     0.00     -18.21  -10.78  -10.06    0.00695    66.97  RIGHT     3.47379E-01   -19.36    8.17134E-01   -20.47
  126.00     0.00     -22.81  -15.41  -14.69    0.04676    67.03  RIGHT     2.04428E-01   -26.15    4.79391E-01   -33.58
  128.00     0.00     -34.84  -27.74  -26.97    0.08399    66.54  RIGHT     5.12095E-02   -33.03    1.15938E-01   -46.08
  130.00     0.00     -28.67  -21.34  -20.60    0.13182    67.72  RIGHT     1.04118E-01   141.57    2.42243E-01   120.64
  132.00     0.00     -20.93  -13.93  -13.14    0.17170    67.52  RIGHT     2.53994E-01   135.13    5.68335E-01   108.53
  134.00     0.00     -17.18  -10.53   -9.68    0.21243    67.44  RIGHT     3.90922E-01   128.79    8.41154E-01    96.66
  136.00     0.00     -14.92   -8.64   -7.72    0.25309    67.36  RIGHT     5.07406E-01   122.39    1.04592E+00    85.12
  138.00     0.00     -13.51   -7.63   -6.63    0.29342    67.26  RIGHT     5.96403E-01   115.94    1.17448E+00    73.93
  140.00     0.00     -12.74   -7.26   -6.18    0.33325    67.13  RIGHT     6.52035E-01   109.45    1.22500E+00    63.13
  142.00     0.00     -12.50   -7.43   -6.26    0.37247    66.98  RIGHT     6.70336E-01   102.97    1.20124E+00    52.74
  144.00     0.00     -12.77   -8.11   -6.83    0.41096    66.81  RIGHT     6.49818E-01    96.57    1.11152E+00    42.77
  146.00     0.00     -13.58   -9.31   -7.93    0.44863    66.62  RIGHT     5.91754E-01    90.31    9.67515E-01    33.28
  148.00     0.00     -15.04  -11.15   -9.66    0.48542    66.41  RIGHT     5.00124E-01    84.31    7.83017E-01    24.31
  150.00     0.00     -17.40  -13.87  -12.27    0.52128    66.18  RIGHT     3.81284E-01    78.72    5.72756E-01    16.02
  152.00     0.00     -21.30  -18.11  -16.41    0.55617    65.89  RIGHT     2.43417E-01    74.01    3.51381E-01     8.86
  154.00     0.00     -29.37  -26.55  -24.72    0.58974    65.23  RIGHT     9.61101E-02    73.29    1.33014E-01     6.11
  156.00     0.00     -34.27  -31.43  -29.61    0.61493    67.24  RIGHT     5.46578E-02  -134.16    7.58278E-02   155.68
  158.00     0.00     -23.33  -20.90  -18.93    0.65233    66.32  RIGHT     1.92698E-01  -128.91    2.54972E-01   159.04
  160.00     0.00     -19.07  -16.90  -14.84    0.68326    66.21  RIGHT     3.14570E-01  -131.93    4.04012E-01   154.14
  162.00     0.00     -16.72  -14.76  -12.62    0.71267    66.32  RIGHT     4.12556E-01  -135.53    5.16524E-01   148.72
  164.00     0.00     -15.37  -13.61  -11.39    0.74076    66.64  RIGHT     4.81539E-01  -139.01    5.89593E-01   143.49
  166.00     0.00     -14.73  -13.14  -10.85    0.76754    67.21  RIGHT     5.18409E-01  -142.20    6.22522E-01   138.62
  168.00     0.00     -14.67  -13.23  -10.88    0.79289    68.15  RIGHT     5.22054E-01  -145.02    6.16522E-01   134.17
  170.00     0.00     -15.16  -13.84  -11.44    0.81658    69.56  RIGHT     4.93280E-01  -147.42    5.74425E-01   130.19
  172.00     0.00     -16.26  -15.04  -12.60    0.83823    71.62  RIGHT     4.34644E-01  -149.37    5.00394E-01   126.69
  174.00     0.00     -18.14  -16.99  -14.52    0.85717    74.57  RIGHT     3.50225E-01  -150.85    3.99649E-01   123.69
  176.00     0.00     -21.23  -20.14  -17.64    0.87241    78.59  RIGHT     2.45352E-01  -151.85    2.78212E-01   121.19
  178.00     0.00     -27.00  -25.94  -23.43    0.88260    83.74  RIGHT     1.26303E-01  -152.36    1.42676E-01   119.20
  180.00     0.00    -999.99 -999.99 -999.99    0.00000     0.00            2.33555E-11    24.04    4.22728E-11   -57.95






 ***** DATA CARD NO. 15   RP   0   181     1  1000 -1.80000E+02  4.50000E+01  2.00000E+00  1.00000E+00  0.00000E+00  0.00000E+00



                                                - - - RADIATION PATTERNS - - -

  - - ANGLES - -           - POWER GAINS -       - - - POLARIZATION - - -    - - - E(THETA) - - -    - - - E(PHI) - - -
  THETA     PHI        VERT.   HOR.    TOTAL      AXIAL     TILT   SENSE     MAGNITUDE    PHASE      MAGNITUDE    PHASE 
 DEGREES  DEGREES       DB      DB      DB        RATIO     DEG.              VOLTS/M    DEGREES      VOLTS/M    DEGREES
 -180.00    45.00    -999.99 -999.99 -999.99    0.00000     0.00            4.94404E-11  -151.22    4.16902E-11   128.27
 -178.00    45.00     -26.85  -25.96  -23.37    0.90126    84.58  RIGHT     1.28450E-01    27.72    1.42257E-01   -61.16
 -176.00    45.00     -20.94  -20.19  -17.54    0.91021    78.14  RIGHT     2.53713E-01    28.32    2.76521E-01   -59.51
 -174.00    45.00     -17.70  -17.07  -14.37    0.91222    71.09  RIGHT     3.68207E-01    29.42    3.95894E-01   -57.35
 -172.00    45.00     -15.68  -15.15  -12.40    0.90756    64.64  RIGHT     4.64587E-01    31.02    4.93953E-01   -54.68
 -170.00    45.00     -14.44  -13.99  -11.20    0.89775    59.59  RIGHT     5.36103E-01    33.10    5.64957E-01   -51.51
 -168.00    45.00     -13.80  -13.40  -10.59    0.88455    56.03  RIGHT     5.76981E-01    35.65    6.04068E-01   -47.85
 -166.00    45.00     -13.72  -13.35  -10.52    0.86924    53.70  RIGHT     5.82788E-01    38.65    6.07582E-01   -43.71
 -164.00    45.00     -14.21  -13.86  -11.02    0.85261    52.29  RIGHT     5.50803E-01    42.05    5.73175E-01   -39.14
 -162.00    45.00     -15.39  -15.04  -12.21    0.83504    51.55  RIGHT     4.80329E-01    45.79    5.00153E-01   -34.20
 -160.00    45.00     -17.59  -17.21  -14.39    0.81670    51.34  RIGHT     3.72965E-01    49.68    3.89688E-01   -29.07
 -158.00    45.00     -21.69  -21.24  -18.45    0.79757    51.66  RIGHT     2.32814E-01    53.05    2.45071E-01   -24.44
 -156.00    45.00     -32.44  -31.77  -29.08    0.77361    53.91  RIGHT     6.74909E-02    48.08    7.28952E-02   -28.04
 -154.00    45.00     -27.41  -27.01  -24.19    0.75369    49.83  RIGHT     1.20435E-01  -103.56    1.26137E-01  -177.79
 -152.00    45.00     -19.16  -18.59  -15.86    0.73472    51.35  RIGHT     3.11305E-01  -102.32    3.32480E-01  -175.33
 -150.00    45.00     -15.09  -14.38  -11.71    0.71261    52.22  RIGHT     4.97641E-01   -96.91    5.39958E-01  -168.42
 -148.00    45.00     -12.55  -11.70   -9.09    0.68920    53.02  RIGHT     6.66217E-01   -90.46    7.35303E-01  -160.35
 -146.00    45.00     -10.92   -9.89   -7.36    0.66457    53.81  RIGHT     8.04461E-01   -83.42    9.04985E-01  -151.60
 -144.00    45.00      -9.93   -8.72   -6.27    0.63869    54.59  RIGHT     9.01132E-01   -75.95    1.03563E+00  -142.31
 -142.00    45.00      -9.50   -8.08   -5.72    0.61152    55.38  RIGHT     9.47335E-01   -68.12    1.11493E+00  -132.54
 -140.00    45.00      -9.59   -7.94   -5.68    0.58303    56.15  RIGHT     9.37483E-01   -59.97    1.13272E+00  -122.33
 -138.00    45.00     -10.23   -8.34   -6.17    0.55320    56.91  RIGHT     8.70073E-01   -51.55    1.08206E+00  -111.71
 -136.00    45.00     -11.55   -9.38   -7.32    0.52203    57.66  RIGHT     7.48150E-01   -42.90    9.60271E-01  -100.70
 -134.00    45.00     -13.77  -11.30   -9.35    0.48957    58.41  RIGHT     5.79384E-01   -34.05    7.69764E-01   -89.33
 -132.00    45.00     -17.53  -14.73  -12.90    0.45590    59.19  RIGHT     3.75674E-01   -25.03    5.18634E-01   -77.63
 -130.00    45.00     -25.37  -22.14  -20.45    0.42160    60.30  RIGHT     1.52310E-01   -15.80    2.20838E-01   -65.79
 -128.00    45.00     -31.73  -28.67  -26.93    0.37925    58.40  RIGHT     7.32769E-02   172.83    1.04121E-01   128.04
 -126.00    45.00     -19.99  -16.32  -14.77    0.34515    60.24  RIGHT     2.83007E-01  -177.67    4.31874E-01   140.05
 -124.00    45.00     -15.77  -11.70  -10.27    0.30696    60.94  RIGHT     4.59771E-01  -168.42    7.34686E-01   152.99
 -122.00    45.00     -13.63   -9.17   -7.84    0.26759    61.50  RIGHT     5.88866E-01  -159.23    9.83085E-01   166.27
 -120.00    45.00     -12.65   -7.83   -6.59    0.22734    62.00  RIGHT     6.59117E-01  -150.12    1.14805E+00   179.84
 -118.00    45.00     -12.59   -7.42   -6.26    0.18640    62.45  RIGHT     6.63457E-01  -141.09    1.20338E+00  -166.30
 -116.00    45.00     -13.48   -7.98   -6.90    0.14490    62.87  RIGHT     5.98918E-01  -132.11    1.12799E+00  -152.15
 -114.00    45.00     -15.66   -9.86   -8.85    0.10293    63.27  RIGHT     4.66099E-01  -123.08    9.08134E-01  -137.60
 -112.00    45.00     -20.45  -14.39  -13.43    0.06002    63.70  RIGHT     2.68342E-01  -113.49    5.39190E-01  -122.11
 -110.00    45.00     -45.71  -37.89  -37.23    0.01633    67.89  RIGHT     1.46514E-02   -62.74    3.60375E-02   -65.42
 -108.00    45.00     -19.47  -13.23  -12.31    0.01568    64.00  LEFT      3.00569E-01    79.74    6.15947E-01    82.02
 -106.00    45.00     -12.68   -6.36   -5.45    0.05748    64.36  LEFT      6.56454E-01    89.68    1.35856E+00    98.09
 -104.00    45.00      -8.63   -2.30   -1.39    0.09702    64.66  LEFT      1.04716E+00    99.16    2.16854E+00   113.36
 -102.00    45.00      -5.74    0.53    1.45    0.13493    64.94  LEFT      1.45915E+00   108.79    3.00428E+00   128.50
 -100.00    45.00      -3.56    2.62    3.55    0.17107    65.22  LEFT      1.87513E+00   118.76    3.82029E+00   143.61
  -98.00    45.00      -1.89    4.17    5.13    0.20519    65.50  LEFT      2.27404E+00   129.13    4.57020E+00   158.72
  -96.00    45.00      -0.62    5.31    6.30    0.23702    65.80  LEFT      2.63197E+00   139.93    5.20999E+00   173.82
  -94.00    45.00       0.29    6.09    7.11    0.26628    66.13  LEFT      2.92418E+00   151.16    5.70122E+00  -171.08
  -92.00    45.00       0.88    6.56    7.60    0.29267    66.49  LEFT      3.12769E+00   162.79    6.01379E+00  -156.02
  -90.00    45.00       1.14    6.72    7.78    0.31594    66.90  LEFT      3.22415E+00   174.81    6.12819E+00  -140.99
  -88.00    45.00       1.08    6.59    7.67    0.33584    67.35  LEFT      3.20242E+00  -172.83    6.03699E+00  -126.03
  -86.00    45.00       0.69    6.16    7.25    0.35215    67.86  LEFT      3.06053E+00  -160.17    5.74538E+00  -111.14
  -84.00    45.00      -0.06    5.41    6.50    0.36467    68.42  LEFT      2.80647E+00  -147.24    5.27081E+00   -96.35
  -82.00    45.00      -1.21    4.31    5.38    0.37326    69.04  LEFT      2.45776E+00  -134.07    4.64176E+00   -81.68
  -80.00    45.00      -2.83    2.79    3.84    0.37780    69.70  LEFT      2.03987E+00  -120.71    3.89563E+00   -67.15
  -78.00    45.00      -5.03    0.73    1.76    0.37823    70.40  LEFT      1.58359E+00  -107.19    3.07606E+00   -52.79
  -76.00    45.00      -8.03   -2.06   -1.08    0.37459    71.12  LEFT      1.12172E+00   -93.59    2.22982E+00   -38.68
  -74.00    45.00     -12.30   -6.08   -5.15    0.36701    71.85  LEFT      6.85695E-01   -80.03    1.40348E+00   -24.94
  -72.00    45.00     -19.41  -12.90  -12.02    0.35616    72.54  LEFT      3.02371E-01   -67.24    6.40350E-01   -12.30
  -70.00    45.00     -45.15  -37.91  -37.16    0.29884    72.36  LEFT      1.56190E-02  -176.13    3.59553E-02  -127.48
  -68.00    45.00     -21.52  -14.07  -13.35    0.31626    74.09  LEFT      2.37314E-01   147.05    5.59692E-01  -159.82
  -66.00    45.00     -17.44   -9.49   -8.84    0.29431    74.70  LEFT      3.79721E-01   160.65    9.48200E-01  -147.65
  -64.00    45.00     -16.10   -7.57   -7.00    0.26844    75.29  LEFT      4.43123E-01   175.41    1.18294E+00  -134.93
  -62.00    45.00     -16.15   -6.97   -6.47    0.23949    75.82  LEFT      4.40279E-01  -169.19    1.26699E+00  -122.26
  -60.00    45.00     -17.24   -7.35   -6.92    0.20785    76.30  LEFT      3.88207E-01  -153.12    1.21324E+00  -109.77
  -58.00    45.00     -19.33   -8.66   -8.31    0.17389    76.72  LEFT      3.05427E-01  -136.24    1.04263E+00   -97.51
  -56.00    45.00     -22.61  -11.16  -10.86    0.13798    77.08  LEFT      2.09249E-01  -118.37    7.82017E-01   -85.53
  -54.00    45.00     -27.93  -15.74  -15.48    0.10061    77.37  LEFT      1.13389E-01   -99.30    4.61695E-01   -73.83
  -52.00    45.00     -40.64  -27.97  -27.74    0.06481    77.41  LEFT      2.62631E-02   -79.40    1.12907E-01   -62.39
  -50.00    45.00     -35.11  -21.62  -21.43    0.01746    78.09  LEFT      4.96299E-02   123.61    2.34514E-01   128.56
  -48.00    45.00     -27.69  -14.15  -13.96    0.02268    78.19  RIGHT     1.16571E-01   145.76    5.54159E-01   139.29
  -46.00    45.00     -23.98  -10.70  -10.50    0.06450    78.31  RIGHT     1.78665E-01   167.75    8.24574E-01   149.67
  -44.00    45.00     -21.49   -8.77   -8.54    0.10698    78.41  RIGHT     2.38203E-01  -171.52    1.03025E+00   159.67
  -42.00    45.00     -19.67   -7.72   -7.45    0.14982    78.49  RIGHT     2.93685E-01  -152.62    1.16203E+00   169.30
  -40.00    45.00     -18.39   -7.32   -6.99    0.19278    78.53  RIGHT     3.40288E-01  -135.67    1.21699E+00   178.55
  -38.00    45.00     -17.62   -7.46   -7.06    0.23570    78.56  RIGHT     3.71739E-01  -120.52    1.19790E+00  -172.59
  -36.00    45.00     -17.38   -8.10   -7.62    0.27841    78.56  RIGHT     3.82223E-01  -106.90    1.11225E+00  -164.12
  -34.00    45.00     -17.71   -9.28   -8.70    0.32079    78.54  RIGHT     3.67748E-01   -94.58    9.71167E-01  -156.01
  -32.00    45.00     -18.74  -11.09  -10.40    0.36271    78.50  RIGHT     3.26867E-01   -83.30    7.88175E-01  -148.23
  -30.00    45.00     -20.70  -13.79  -12.98    0.40413    78.45  RIGHT     2.60878E-01   -72.78    5.77989E-01  -140.67
  -28.00    45.00     -24.23  -18.01  -17.08    0.44509    78.35  RIGHT     1.73633E-01   -62.50    3.55453E-01  -132.88
  -26.00    45.00     -31.97  -26.42  -25.35    0.48635    78.03  RIGHT     7.12578E-02   -49.32    1.35025E-01  -121.65
  -24.00    45.00     -36.62  -31.37  -30.23    0.51355    79.00  RIGHT     4.17206E-02   116.09    7.63585E-02    41.12
  -22.00    45.00     -25.38  -20.79  -19.50    0.55795    78.64  RIGHT     1.52098E-01   133.23    2.58089E-01    56.64
  -20.00    45.00     -20.87  -16.78  -15.35    0.59556    78.59  RIGHT     2.55606E-01   141.03    4.09415E-01    62.90
  -18.00    45.00     -18.29  -14.65  -13.08    0.63154    78.63  RIGHT     3.44272E-01   147.25    5.23619E-01    67.67
  -16.00    45.00     -16.73  -13.50  -11.81    0.66618    78.75  RIGHT     4.11882E-01   152.55    5.97614E-01    71.62
  -14.00    45.00     -15.89  -13.03  -11.22    0.69952    78.97  RIGHT     4.53763E-01   157.12    6.30653E-01    74.93
  -12.00    45.00     -15.64  -13.12  -11.19    0.73151    79.32  RIGHT     4.66969E-01   161.04    6.24009E-01    77.64
  -10.00    45.00     -15.95  -13.75  -11.70    0.76208    79.86  RIGHT     4.50378E-01   164.35    5.80673E-01    79.79
   -8.00    45.00     -16.88  -14.96  -12.81    0.79112    80.66  RIGHT     4.04673E-01   167.06    5.05038E-01    81.39
   -6.00    45.00     -18.60  -16.93  -14.67    0.81845    81.85  RIGHT     3.32240E-01   169.19    4.02596E-01    82.43
   -4.00    45.00     -21.53  -20.09  -17.74    0.84379    83.57  RIGHT     2.36995E-01   170.75    2.79653E-01    82.93
   -2.00    45.00     -27.15  -25.91  -23.48    0.86669    86.08  RIGHT     1.24159E-01   171.76    1.43063E-01    82.88
    0.00    45.00    -999.99 -999.99 -999.99    0.00000     0.00            1.43472E-11   177.86    7.53095E-13  -145.49
    2.00    45.00     -26.85  -25.96  -23.37    0.90175   -85.31  RIGHT     1.28459E-01    -7.87    1.42258E-01   -98.83
    4.00    45.00     -20.94  -20.19  -17.54    0.91129   -78.88  RIGHT     2.53749E-01    -8.49    2.76525E-01  -100.51
    6.00    45.00     -17.70  -17.07  -14.37    0.91386   -71.73  RIGHT     3.68285E-01    -9.65    3.95900E-01  -102.72
    8.00    45.00     -15.68  -15.15  -12.40    0.90962   -65.10  RIGHT     4.64715E-01   -11.34    4.93959E-01  -105.48
   10.00    45.00     -14.44  -13.99  -11.20    0.90004   -59.87  RIGHT     5.36283E-01   -13.55    5.64962E-01  -108.79
   12.00    45.00     -13.80  -13.40  -10.59    0.88694   -56.19  RIGHT     5.77205E-01   -16.30    6.04069E-01  -112.64
   14.00    45.00     -13.71  -13.35  -10.52    0.87166   -53.78  RIGHT     5.83045E-01   -19.58    6.07575E-01  -117.06
   16.00    45.00     -14.20  -13.86  -11.02    0.85502   -52.32  RIGHT     5.51071E-01   -23.41    5.73157E-01  -122.06
   18.00    45.00     -15.39  -15.04  -12.20    0.83744   -51.56  RIGHT     4.80584E-01   -27.85    5.00123E-01  -127.71
   20.00    45.00     -17.59  -17.21  -14.39    0.81915   -51.33  RIGHT     3.73182E-01   -33.07    3.89644E-01  -134.16
   22.00    45.00     -21.68  -21.24  -18.44    0.80036   -51.64  RIGHT     2.32979E-01   -39.76    2.45011E-01  -142.08
   24.00    45.00     -32.41  -31.78  -29.08    0.78500   -53.87  RIGHT     6.77021E-02   -56.02    7.27918E-02  -159.13
   26.00    45.00     -27.39  -27.01  -24.19    0.76009   -49.79  RIGHT     1.20650E-01   141.67    1.26148E-01    36.36
   28.00    45.00     -19.15  -18.59  -15.85    0.73764   -51.35  RIGHT     3.11564E-01   130.21    3.32501E-01    23.44
   30.00    45.00     -15.08  -14.38  -11.71    0.71502   -52.23  RIGHT     4.97987E-01   122.33    5.39966E-01    14.02
   32.00    45.00     -12.55  -11.70   -9.09    0.69137   -53.03  RIGHT     6.66631E-01   114.77    7.35287E-01     4.83
   34.00    45.00     -10.91   -9.89   -7.36    0.66655   -53.82  RIGHT     8.04908E-01   107.12    9.04941E-01    -4.54
   36.00    45.00      -9.93   -8.72   -6.27    0.64049   -54.61  RIGHT     9.01566E-01    99.27    1.03555E+00   -14.23
   38.00    45.00      -9.49   -8.08   -5.72    0.61312   -55.40  RIGHT     9.47705E-01    91.17    1.11483E+00   -24.27
   40.00    45.00      -9.58   -7.94   -5.68    0.58439   -56.17  RIGHT     9.37744E-01    82.85    1.13261E+00   -34.68
   42.00    45.00     -10.23   -8.34   -6.17    0.55426   -56.93  RIGHT     8.70193E-01    74.30    1.08196E+00   -45.45
   44.00    45.00     -11.55   -9.38   -7.32    0.52268   -57.68  RIGHT     7.48122E-01    65.56    9.60209E-01   -56.58
   46.00    45.00     -13.77  -11.30   -9.35    0.48956   -58.42  RIGHT     5.79228E-01    56.65    7.69769E-01   -68.07
   48.00    45.00     -17.53  -14.73  -12.90    0.45461   -59.19  RIGHT     3.75443E-01    47.61    5.18740E-01   -79.91
   50.00    45.00     -25.38  -22.13  -20.45    0.41562   -60.23  RIGHT     1.52086E-01    38.48    2.21076E-01   -92.15
   52.00    45.00     -31.71  -28.71  -26.95    0.39798   -58.62  RIGHT     7.33871E-02  -150.75    1.03705E-01    76.02
   54.00    45.00     -19.99  -16.33  -14.78    0.35066   -60.33  RIGHT     2.82899E-01  -159.93    4.31290E-01    62.98
   56.00    45.00     -15.78  -11.71  -10.28    0.31058   -61.02  RIGHT     4.59348E-01  -169.10    7.33925E-01    49.94
   58.00    45.00     -13.64   -9.18   -7.85    0.27037   -61.57  RIGHT     5.88072E-01  -178.18    9.82163E-01    36.68
   60.00    45.00     -12.66   -7.83   -6.60    0.22962   -62.06  RIGHT     6.57949E-01   172.85    1.14701E+00    23.21
   62.00    45.00     -12.61   -7.43   -6.28    0.18834   -62.52  RIGHT     6.61979E-01   164.05    1.20226E+00     9.55
   64.00    45.00     -13.50   -7.99   -6.91    0.14663   -62.94  RIGHT     5.97257E-01   155.46    1.12688E+00    -4.24
   66.00    45.00     -15.69   -9.87   -8.86    0.10460   -63.35  RIGHT     4.64429E-01   147.22    9.07108E-01   -18.01
   68.00    45.00     -20.50  -14.40  -13.45    0.06204   -63.80  RIGHT     2.66873E-01   139.93    5.38354E-01   -31.14
   70.00    45.00     -44.55  -37.75  -36.92    0.04452   -65.53  LEFT      1.67439E-02  -174.49    3.66304E-02    -1.24
   72.00    45.00     -19.43  -13.23  -12.29    0.01778   -63.92  LEFT      3.01903E-01   -63.01    6.16385E-01   114.42
   74.00    45.00     -12.67   -6.36   -5.45    0.05858   -64.33  LEFT      6.57591E-01   -70.40    1.35863E+00   101.04
   76.00    45.00      -8.61   -2.30   -1.39    0.09795   -64.64  LEFT      1.04840E+00   -79.04    2.16824E+00    86.62
   78.00    45.00      -5.73    0.53    1.45    0.13586   -64.92  LEFT      1.46084E+00   -88.28    3.00365E+00    71.89
   80.00    45.00      -3.55    2.61    3.55    0.17205   -65.19  LEFT      1.87763E+00   -98.02    3.81937E+00    57.01
   82.00    45.00      -1.88    4.17    5.13    0.20625   -65.48  LEFT      2.27764E+00  -108.26    4.56906E+00    42.04
   84.00    45.00      -0.60    5.31    6.30    0.23814   -65.77  LEFT      2.63686E+00  -118.97    5.20872E+00    27.02
   86.00    45.00       0.31    6.09    7.11    0.26745   -66.09  LEFT      2.93040E+00  -130.15    5.69992E+00    11.98
   88.00    45.00       0.90    6.56    7.60    0.29388   -66.45  LEFT      3.13507E+00  -141.76    6.01255E+00    -3.05
   90.00    45.00       1.16    6.72    7.79    0.31718   -66.85  LEFT      3.23237E+00  -153.78    6.12709E+00   -18.07
   92.00    45.00       1.11    6.59    7.67    0.33708   -67.30  LEFT      3.21105E+00  -166.16    6.03609E+00   -33.05
   94.00    45.00       0.71    6.16    7.25    0.35338   -67.80  LEFT      3.06906E+00  -178.87    5.74469E+00   -47.97
   96.00    45.00      -0.04    5.41    6.50    0.36588   -68.37  LEFT      2.81439E+00   168.13    5.27034E+00   -62.81
   98.00    45.00      -1.19    4.31    5.39    0.37442   -68.98  LEFT      2.46463E+00   154.87    4.64146E+00   -77.58
  100.00    45.00      -2.81    2.79    3.84    0.37889   -69.65  LEFT      2.04534E+00   141.36    3.89545E+00   -92.25
  102.00    45.00      -5.01    0.73    1.76    0.37923   -70.36  LEFT      1.58746E+00   127.62    3.07594E+00  -106.83
  104.00    45.00      -8.01   -2.06   -1.08    0.37546   -71.09  LEFT      1.12396E+00   113.61    2.22966E+00  -121.34
  106.00    45.00     -12.29   -6.08   -5.15    0.36768   -71.84  LEFT      6.86393E-01    99.24    1.40321E+00  -135.90
  108.00    45.00     -19.43  -12.90  -12.03    0.35638   -72.61  LEFT      3.01730E-01    83.91    6.39906E-01  -151.15
  110.00    45.00     -45.55  -38.07  -37.36    0.31114   -73.90  LEFT      1.49149E-02   -63.96    3.52845E-02    63.76
  112.00    45.00     -21.44  -14.06  -13.33    0.31765   -73.92  LEFT      2.39362E-01  -120.66    5.60369E-01     6.33
  114.00    45.00     -17.38   -9.48   -8.83    0.29523   -74.59  LEFT      3.82089E-01  -136.53    9.49062E-01    -8.14
  116.00    45.00     -16.05   -7.56   -6.98    0.26910   -75.19  LEFT      4.45476E-01  -152.05    1.18392E+00   -21.63
  118.00    45.00     -16.11   -6.96   -6.46    0.23993   -75.74  LEFT      4.42377E-01  -167.83    1.26803E+00   -34.67
  120.00    45.00     -17.21   -7.34   -6.91    0.20808   -76.23  LEFT      3.89902E-01   175.88    1.21426E+00   -47.37
  122.00    45.00     -19.29   -8.66   -8.30    0.17388   -76.66  LEFT      3.06662E-01   158.87    1.04357E+00   -59.73
  124.00    45.00     -22.58  -11.15  -10.85    0.13764   -77.02  LEFT      2.10046E-01   140.89    7.82808E-01   -71.77
  126.00    45.00     -27.90  -15.73  -15.47    0.09968   -77.31  LEFT      1.13834E-01   121.71    4.62297E-01   -83.45
  128.00    45.00     -40.57  -27.94  -27.71    0.06033   -77.28  LEFT      2.64720E-02   101.28    1.13296E-01   -94.46
  130.00    45.00     -35.13  -21.63  -21.44    0.01945   -78.11  LEFT      4.95353E-02  -100.76    2.34355E-01    73.72
  132.00    45.00     -27.70  -14.15  -13.96    0.02204   -78.19  RIGHT     1.16517E-01  -123.10    5.54209E-01    63.18
  134.00    45.00     -23.99  -10.70  -10.50    0.06428   -78.31  RIGHT     1.78627E-01  -145.13    8.24806E-01    52.90
  136.00    45.00     -21.49   -8.76   -8.54    0.10701   -78.42  RIGHT     2.38202E-01  -165.85    1.03062E+00    42.98
  138.00    45.00     -19.67   -7.72   -7.45    0.15002   -78.50  RIGHT     2.93753E-01   175.31    1.16250E+00    33.46
  140.00    45.00     -18.38   -7.32   -6.99    0.19313   -78.55  RIGHT     3.40448E-01   158.47    1.21752E+00    24.35
  142.00    45.00     -17.61   -7.45   -7.05    0.23617   -78.58  RIGHT     3.71986E-01   143.49    1.19843E+00    15.68
  144.00    45.00     -17.37   -8.10   -7.61    0.27900   -78.59  RIGHT     3.82534E-01   130.13    1.11275E+00     7.47
  146.00    45.00     -17.71   -9.28   -8.69    0.32147   -78.58  RIGHT     3.68087E-01   118.18    9.71608E-01    -0.24
  148.00    45.00     -18.73  -11.09  -10.40    0.36351   -78.56  RIGHT     3.27195E-01   107.51    7.88541E-01    -7.39
  150.00    45.00     -20.69  -13.78  -12.98    0.40505   -78.52  RIGHT     2.61160E-01    98.08    5.78272E-01   -13.85
  152.00    45.00     -24.22  -18.00  -17.07    0.44624   -78.45  RIGHT     1.73850E-01    90.25    3.55655E-01   -19.15
  154.00    45.00     -31.95  -26.41  -25.34    0.48895   -78.26  RIGHT     7.14435E-02    87.18    1.35162E-01   -20.05
  156.00    45.00     -36.58  -31.37  -30.23    0.51807   -79.23  RIGHT     4.19251E-02  -124.08    7.63347E-02   131.39
  158.00    45.00     -25.37  -20.79  -19.49    0.55908   -78.72  RIGHT     1.52256E-01  -119.97    2.58091E-01   136.76
  160.00    45.00     -20.87  -16.78  -15.35    0.59657   -78.69  RIGHT     2.55812E-01  -124.46    4.09448E-01   133.81
  162.00    45.00     -18.28  -14.64  -13.08    0.63253   -78.75  RIGHT     3.44515E-01  -129.35    5.23670E-01   130.37
  164.00    45.00     -16.72  -13.50  -11.81    0.66717   -78.89  RIGHT     4.12139E-01  -133.94    5.97672E-01   127.12
  166.00    45.00     -15.88  -13.03  -11.22    0.70050   -79.14  RIGHT     4.54010E-01  -138.09    6.30709E-01   124.25
  168.00    45.00     -15.64  -13.12  -11.19    0.73247   -79.52  RIGHT     4.67187E-01  -141.72    6.24056E-01   121.82
  170.00    45.00     -15.95  -13.75  -11.70    0.76301   -80.10  RIGHT     4.50553E-01  -144.83    5.80709E-01   119.87
  172.00    45.00     -16.88  -14.96  -12.80    0.79198   -80.95  RIGHT     4.04798E-01  -147.40    5.05062E-01   118.41
  174.00    45.00     -18.59  -16.93  -14.67    0.81920   -82.19  RIGHT     3.32317E-01  -149.44    4.02610E-01   117.47
  176.00    45.00     -21.53  -20.09  -17.74    0.84439   -84.00  RIGHT     2.37031E-01  -150.94    2.79658E-01   117.03
  178.00    45.00     -27.15  -25.91  -23.48    0.86704   -86.60  RIGHT     1.24169E-01  -151.91    1.43064E-01   117.12
  180.00    45.00    -999.99 -999.99 -999.99    0.00000     0.00            2.51671E-11    25.41    4.38209E-11   -72.31






 ***** DATA CARD NO. 16   RP   0   181     1  1000 -1.80000E+02  9.00000E+01  2.00000E+00  1.00000E+00  0.00000E+00  0.00000E+00



                                                - - - RADIATION PATTERNS - - -

  - - ANGLES - -           - POWER GAINS -       - - - POLARIZATION - - -    - - - E(THETA) - - -    - - - E(PHI) - - -
  THETA     PHI        VERT.   HOR.    TOTAL      AXIAL     TILT   SENSE     MAGNITUDE    PHASE      MAGNITUDE    PHASE 
 DEGREES  DEGREES       DB      DB      DB        RATIO     DEG.              VOLTS/M    DEGREES      VOLTS/M    DEGREES
 -180.00    90.00    -999.99 -999.99 -999.99    0.00000     0.00            4.04800E-11  -152.47    4.29602E-11   136.71
 -178.00    90.00     -27.21  -25.91  -23.50    0.86077    89.75  RIGHT     1.23275E-01    27.90    1.43214E-01   -62.02
 -176.00    90.00     -21.66  -20.08  -17.79    0.83355    89.80  RIGHT     2.33545E-01    28.67    2.80179E-01   -61.26
 -174.00    90.00     -18.79  -16.91  -14.74    0.80480    89.83  RIGHT     3.24811E-01    29.95    4.03590E-01   -59.97
 -172.00    90.00     -17.15  -14.93  -12.89    0.77456    89.86  RIGHT     3.92282E-01    31.74    5.06457E-01   -58.18
 -170.00    90.00     -16.30  -13.72  -11.81    0.74288    89.88  RIGHT     4.32624E-01    34.03    5.82361E-01   -55.89
 -168.00    90.00     -16.07  -13.10  -11.33    0.70981    89.90  RIGHT     4.44145E-01    36.81    6.25726E-01   -53.12
 -166.00    90.00     -16.42  -13.01  -11.38    0.67539    89.91  RIGHT     4.26936E-01    40.07    6.32127E-01   -49.86
 -164.00    90.00     -17.36  -13.48  -11.99    0.63968    89.93  RIGHT     3.82918E-01    43.75    5.98605E-01   -46.18
 -162.00    90.00     -19.04  -14.64  -13.29    0.60270    89.94  RIGHT     3.15806E-01    47.81    5.23983E-01   -42.12
 -160.00    90.00     -21.76  -16.79  -15.59    0.56442    89.95  RIGHT     2.30947E-01    52.06    4.09175E-01   -37.87
 -158.00    90.00     -26.42  -20.81  -19.75    0.52452    89.95  RIGHT     1.35058E-01    55.82    2.57489E-01   -34.12
 -156.00    90.00     -37.82  -31.42  -30.52    0.47874    89.87  RIGHT     3.63391E-02    51.09    7.59050E-02   -38.69
 -154.00    90.00     -33.37  -26.45  -25.64    0.45079    89.87  RIGHT     6.06666E-02   -99.65    1.34576E-01   170.58
 -152.00    90.00     -25.89  -18.07  -17.40    0.40639    89.95  RIGHT     1.43501E-01   -97.83    3.53106E-01   172.28
 -150.00    90.00     -22.66  -13.87  -13.33    0.36343    89.96  RIGHT     2.08101E-01   -91.74    5.72599E-01   178.35
 -148.00    90.00     -21.09  -11.20  -10.78    0.32029    89.97  RIGHT     2.49371E-01   -84.52    7.78583E-01  -174.43
 -146.00    90.00     -20.57   -9.41   -9.09    0.27684    89.98  RIGHT     2.64764E-01   -76.60    9.56374E-01  -166.52
 -144.00    90.00     -20.91   -8.26   -8.03    0.23316    89.98  RIGHT     2.54519E-01   -68.14    1.09163E+00  -158.06
 -142.00    90.00     -22.11   -7.65   -7.50    0.18935    89.99  RIGHT     2.21813E-01   -59.19    1.17141E+00  -149.12
 -140.00    90.00     -24.29   -7.55   -7.46    0.14559    89.99  RIGHT     1.72591E-01   -49.78    1.18542E+00  -139.72
 -138.00    90.00     -27.81   -7.99   -7.94    0.10206    89.99  RIGHT     1.15027E-01   -39.94    1.12711E+00  -129.89
 -136.00    90.00     -33.66   -9.07   -9.06    0.05894    90.00  RIGHT     5.86353E-02   -29.68    9.94759E-01  -119.65
 -134.00    90.00     -46.70  -11.05  -11.05    0.01651   -90.00  RIGHT     1.30767E-02   -18.95    7.92271E-01  -109.02
 -132.00    90.00     -46.61  -14.55  -14.54    0.02493   -90.00  LEFT      1.32040E-02   171.93    5.29561E-01   -98.02
 -130.00    90.00     -45.89  -22.08  -22.06    0.06450    89.99  LEFT      1.43516E-02  -176.49    2.22506E-01   -86.70
 -128.00    90.00     -47.65  -28.39  -28.33    0.10887   -89.90  LEFT      1.17209E-02    14.39    1.07641E-01   105.29
 -126.00    90.00     -33.10  -16.25  -16.16    0.14366   -89.95  LEFT      6.25482E-02    26.87    4.35378E-01   117.21
 -124.00    90.00     -26.69  -11.73  -11.59    0.17870   -89.95  LEFT      1.30916E-01    39.31    7.32584E-01   129.58
 -122.00    90.00     -22.78   -9.29   -9.10    0.21157   -89.95  LEFT      2.05343E-01    52.02    9.70534E-01   142.26
 -120.00    90.00     -20.36   -8.02   -7.78    0.24175   -89.94  LEFT      2.71287E-01    65.02    1.12215E+00   155.25
 -118.00    90.00     -19.12   -7.70   -7.40    0.26880   -89.93  LEFT      3.12973E-01    78.31    1.16431E+00   168.55
 -116.00    90.00     -19.04   -8.36   -8.00    0.29227   -89.92  LEFT      3.15647E-01    91.92    1.07996E+00  -177.82
 -114.00    90.00     -20.46  -10.34   -9.93    0.31161   -89.90  LEFT      2.67952E-01   105.93    8.59887E-01  -163.77
 -112.00    90.00     -24.72  -14.98  -14.54    0.32559   -89.84  LEFT      1.64102E-01   120.83    5.03998E-01  -148.74
 -110.00    90.00     -50.33  -39.19  -38.87    0.27614    88.50  LEFT      8.60938E-03  -174.07    3.10393E-02   -89.07
 -108.00    90.00     -23.02  -13.90  -13.40    0.34991    89.93  LEFT      1.99668E-01   -35.12    5.70621E-01    54.72
 -106.00    90.00     -16.28   -7.14   -6.64    0.34914   -90.00  LEFT      4.33768E-01   -19.59    1.24241E+00    70.42
 -104.00    90.00     -12.44   -3.17   -2.69    0.34414   -89.97  LEFT      6.75223E-01    -4.67    1.96206E+00    85.41
 -102.00    90.00      -9.95   -0.43    0.03    0.33386   -89.96  LEFT      8.98574E-01    10.20    2.69149E+00   100.30
 -100.00    90.00      -8.37    1.58    2.00    0.31802   -89.96  LEFT      1.07835E+00    25.10    3.39085E+00   115.23
  -98.00    90.00      -7.50    3.06    3.43    0.29655   -89.95  LEFT      1.19247E+00    40.06    4.02109E+00   130.20
  -96.00    90.00      -7.26    4.13    4.43    0.26953   -89.95  LEFT      1.22544E+00    55.06    4.54662E+00   145.22
  -94.00    90.00      -7.66    4.84    5.08    0.23711   -89.95  LEFT      1.17074E+00    70.10    4.93763E+00   160.28
  -92.00    90.00      -8.75    5.25    5.42    0.19956   -89.96  LEFT      1.03215E+00    85.15    5.17211E+00   175.37
  -90.00    90.00     -10.71    5.36    5.46    0.15725   -89.96  LEFT      8.23536E-01   100.20    5.23720E+00  -169.54
  -88.00    90.00     -13.95    5.18    5.23    0.11061   -89.96  LEFT      5.67432E-01   115.20    5.13003E+00  -154.45
  -86.00    90.00     -19.71    4.70    4.72    0.06016   -89.97  LEFT      2.92238E-01   130.02    4.85775E+00  -139.40
  -84.00    90.00     -39.86    3.92    3.92    0.00645   -89.97  LEFT      2.87297E-02   140.75    4.43702E+00  -124.39
  -82.00    90.00     -23.26    2.78    2.79    0.04991   -89.97  RIGHT     1.94310E-01   -18.89    3.89283E+00  -109.46
[...]
   90.00    36.00      -4.96    5.65    6.01    0.20005   -77.76  LEFT      1.59730E+00  -138.03    5.41820E+00    -3.20
   90.00    38.00      -3.09    5.86    6.38    0.22634   -74.53  LEFT      1.97938E+00  -144.35    5.54711E+00    -7.21
   90.00    40.00      -1.57    6.09    6.78    0.25394   -71.79  LEFT      2.35991E+00  -148.39    5.69916E+00   -10.83
   90.00    42.00      -0.31    6.34    7.19    0.28083   -69.52  LEFT      2.72637E+00  -151.12    5.86622E+00   -14.04
   90.00    44.00       0.72    6.60    7.59    0.30572   -67.65  LEFT      3.07057E+00  -153.03    6.04008E+00   -16.83
   90.00    46.00       1.57    6.84    7.97    0.32789   -66.13  LEFT      3.38644E+00  -154.42    6.21292E+00   -19.21
   90.00    48.00       2.27    7.07    8.31    0.34702   -64.91  LEFT      3.66917E+00  -155.44    6.37757E+00   -21.21
   90.00    50.00       2.83    7.27    8.60    0.36301   -63.94  LEFT      3.91481E+00  -156.19    6.52769E+00   -22.84
   90.00    52.00       3.27    7.44    8.85    0.37590   -63.19  LEFT      4.12014E+00  -156.74    6.65789E+00   -24.14
   90.00    54.00       3.61    7.58    9.04    0.38578   -62.63  LEFT      4.28253E+00  -157.13    6.76374E+00   -25.12
   90.00    56.00       3.84    7.68    9.18    0.39275   -62.24  LEFT      4.39997E+00  -157.40    6.84180E+00   -25.81
   90.00    58.00       3.98    7.74    9.26    0.39689   -62.02  LEFT      4.47100E+00  -157.55    6.88962E+00   -26.22
   90.00    60.00       4.03    7.76    9.29    0.39826   -61.94  LEFT      4.49478E+00  -157.60    6.90572E+00   -26.35
   90.00    62.00       3.98    7.74    9.26    0.39689   -62.02  LEFT      4.47100E+00  -157.55    6.88962E+00   -26.22
   90.00    64.00       3.84    7.68    9.18    0.39275   -62.24  LEFT      4.39997E+00  -157.40    6.84180E+00   -25.81
   90.00    66.00       3.61    7.58    9.04    0.38578   -62.63  LEFT      4.28253E+00  -157.13    6.76374E+00   -25.12
   90.00    68.00       3.27    7.44    8.85    0.37590   -63.19  LEFT      4.12014E+00  -156.74    6.65789E+00   -24.14
   90.00    70.00       2.83    7.27    8.60    0.36301   -63.94  LEFT      3.91481E+00  -156.19    6.52769E+00   -22.84
   90.00    72.00       2.27    7.07    8.31    0.34702   -64.91  LEFT      3.66917E+00  -155.44    6.37757E+00   -21.21
   90.00    74.00       1.57    6.84    7.97    0.32789   -66.13  LEFT      3.38644E+00  -154.42    6.21292E+00   -19.21
   90.00    76.00       0.72    6.60    7.59    0.30572   -67.65  LEFT      3.07057E+00  -153.03    6.04008E+00   -16.83
   90.00    78.00      -0.31    6.34    7.19    0.28083   -69.52  LEFT      2.72637E+00  -151.12    5.86622E+00   -14.04
   90.00    80.00      -1.57    6.09    6.78    0.25394   -71.79  LEFT      2.35991E+00  -148.39    5.69916E+00   -10.83
   90.00    82.00      -3.09    5.86    6.38    0.22634   -74.53  LEFT      1.97938E+00  -144.35    5.54711E+00    -7.21
   90.00    84.00      -4.96    5.65    6.01    0.20005   -77.76  LEFT      1.59730E+00  -138.03    5.41820E+00    -3.20
   90.00    86.00      -7.18    5.49    5.72    0.17783   -81.48  LEFT      1.23653E+00  -127.44    5.31987E+00     1.15
   90.00    88.00      -9.51    5.39    5.53    0.16272   -85.60  LEFT      9.46279E-01  -108.84    5.25821E+00     5.74
   90.00    90.00     -10.71    5.36    5.46    0.15725   -89.96  LEFT      8.23536E-01   -79.80    5.23720E+00    10.46
   90.00    92.00      -9.55    5.39    5.53    0.16242    85.68  LEFT      9.41655E-01   -50.60    5.25826E+00    15.18
   90.00    94.00      -7.23    5.49    5.72    0.17726    81.56  LEFT      1.22954E+00   -31.79    5.31999E+00    19.78
   90.00    96.00      -5.00    5.65    6.01    0.19926    77.83  LEFT      1.58934E+00   -21.08    5.41842E+00    24.12
   90.00    98.00      -3.13    5.86    6.37    0.22538    74.59  LEFT      1.97105E+00   -14.70    5.54746E+00    28.14
   90.00   100.00      -1.60    6.09    6.77    0.25286    71.85  LEFT      2.35149E+00   -10.62    5.69969E+00    31.76
   90.00   102.00      -0.34    6.34    7.19    0.27967    69.57  LEFT      2.71798E+00    -7.87    5.86695E+00    34.97
   90.00   104.00       0.70    6.60    7.59    0.30451    67.70  LEFT      3.06228E+00    -5.94    6.04105E+00    37.77
   90.00   106.00       1.55    6.84    7.97    0.32664    66.17  LEFT      3.37829E+00    -4.55    6.21415E+00    40.15
   90.00   108.00       2.25    7.07    8.31    0.34574    64.95  LEFT      3.66118E+00    -3.53    6.37905E+00    42.14
   90.00   110.00       2.81    7.27    8.60    0.36171    63.98  LEFT      3.90698E+00    -2.77    6.52942E+00    43.78
   90.00   112.00       3.26    7.44    8.85    0.37459    63.22  LEFT      4.11245E+00    -2.22    6.65985E+00    45.08
   90.00   114.00       3.59    7.58    9.04    0.38446    62.67  LEFT      4.27497E+00    -1.82    6.76589E+00    46.06
   90.00   116.00       3.83    7.68    9.18    0.39142    62.28  LEFT      4.39249E+00    -1.55    6.84409E+00    46.75
   90.00   118.00       3.97    7.74    9.26    0.39556    62.05  LEFT      4.46359E+00    -1.40    6.89199E+00    47.16
   90.00   120.00       4.01    7.76    9.29    0.39693    61.98  LEFT      4.48738E+00    -1.35    6.90812E+00    47.29
   90.00   122.00       3.97    7.74    9.26    0.39556    62.05  LEFT      4.46359E+00    -1.40    6.89199E+00    47.16
   90.00   124.00       3.83    7.68    9.18    0.39142    62.28  LEFT      4.39249E+00    -1.55    6.84409E+00    46.75
   90.00   126.00       3.59    7.58    9.04    0.38446    62.67  LEFT      4.27497E+00    -1.82    6.76589E+00    46.06
   90.00   128.00       3.26    7.44    8.85    0.37459    63.22  LEFT      4.11245E+00    -2.22    6.65985E+00    45.08
   90.00   130.00       2.81    7.27    8.60    0.36171    63.98  LEFT      3.90698E+00    -2.77    6.52942E+00    43.78
   90.00   132.00       2.25    7.07    8.31    0.34574    64.95  LEFT      3.66118E+00    -3.53    6.37905E+00    42.14
   90.00   134.00       1.55    6.84    7.97    0.32664    66.17  LEFT      3.37829E+00    -4.55    6.21415E+00    40.15
   90.00   136.00       0.70    6.60    7.59    0.30451    67.70  LEFT      3.06228E+00    -5.94    6.04105E+00    37.77
   90.00   138.00      -0.34    6.34    7.19    0.27967    69.57  LEFT      2.71798E+00    -7.87    5.86695E+00    34.97
   90.00   140.00      -1.60    6.09    6.77    0.25286    71.85  LEFT      2.35149E+00   -10.62    5.69969E+00    31.76
   90.00   142.00      -3.13    5.86    6.37    0.22538    74.59  LEFT      1.97105E+00   -14.70    5.54746E+00    28.14
   90.00   144.00      -5.00    5.65    6.01    0.19926    77.83  LEFT      1.58934E+00   -21.08    5.41842E+00    24.12
   90.00   146.00      -7.23    5.49    5.72    0.17726    81.56  LEFT      1.22954E+00   -31.79    5.31999E+00    19.78
   90.00   148.00      -9.55    5.39    5.53    0.16242    85.68  LEFT      9.41655E-01   -50.60    5.25826E+00    15.18
   90.00   150.00     -10.71    5.36    5.46    0.15725   -89.96  LEFT      8.23536E-01   -79.80    5.23720E+00    10.46
   90.00   152.00      -9.51    5.39    5.53    0.16272   -85.60  LEFT      9.46279E-01  -108.84    5.25821E+00     5.74
   90.00   154.00      -7.18    5.49    5.72    0.17783   -81.48  LEFT      1.23653E+00  -127.44    5.31987E+00     1.15
   90.00   156.00      -4.96    5.65    6.01    0.20005   -77.76  LEFT      1.59730E+00  -138.03    5.41820E+00    -3.20
   90.00   158.00      -3.09    5.86    6.38    0.22634   -74.53  LEFT      1.97938E+00  -144.35    5.54711E+00    -7.21
   90.00   160.00      -1.57    6.09    6.78    0.25394   -71.79  LEFT      2.35991E+00  -148.39    5.69916E+00   -10.83
   90.00   162.00      -0.31    6.34    7.19    0.28083   -69.52  LEFT      2.72637E+00  -151.12    5.86622E+00   -14.04
   90.00   164.00       0.72    6.60    7.59    0.30572   -67.65  LEFT      3.07057E+00  -153.03    6.04008E+00   -16.83
   90.00   166.00       1.57    6.84    7.97    0.32789   -66.13  LEFT      3.38644E+00  -154.42    6.21292E+00   -19.21
   90.00   168.00       2.27    7.07    8.31    0.34702   -64.91  LEFT      3.66917E+00  -155.44    6.37757E+00   -21.21
   90.00   170.00       2.83    7.27    8.60    0.36301   -63.94  LEFT      3.91481E+00  -156.19    6.52769E+00   -22.84
   90.00   172.00       3.27    7.44    8.85    0.37590   -63.19  LEFT      4.12014E+00  -156.74    6.65789E+00   -24.14
   90.00   174.00       3.61    7.58    9.04    0.38578   -62.63  LEFT      4.28253E+00  -157.13    6.76374E+00   -25.12
   90.00   176.00       3.84    7.68    9.18    0.39275   -62.24  LEFT      4.39997E+00  -157.40    6.84180E+00   -25.81
   90.00   178.00       3.98    7.74    9.26    0.39689   -62.02  LEFT      4.47100E+00  -157.55    6.88962E+00   -26.22
   90.00   180.00       4.03    7.76    9.29    0.39826   -61.94  LEFT      4.49478E+00  -157.60    6.90572E+00   -26.35
   90.00   182.00       3.98    7.74    9.26    0.39689   -62.02  LEFT      4.47100E+00  -157.55    6.88962E+00   -26.22
   90.00   184.00       3.84    7.68    9.18    0.39275   -62.24  LEFT      4.39997E+00  -157.40    6.84180E+00   -25.81
   90.00   186.00       3.61    7.58    9.04    0.38578   -62.63  LEFT      4.28253E+00  -157.13    6.76374E+00   -25.12
   90.00   188.00       3.27    7.44    8.85    0.37590   -63.19  LEFT      4.12014E+00  -156.74    6.65789E+00   -24.14
   90.00   190.00       2.83    7.27    8.60    0.36301   -63.94  LEFT      3.91481E+00  -156.19    6.52769E+00   -22.84
   90.00   192.00       2.27    7.07    8.31    0.34702   -64.91  LEFT      3.66917E+00  -155.44    6.37757E+00   -21.21
   90.00   194.00       1.57    6.84    7.97    0.32789   -66.13  LEFT      3.38644E+00  -154.42    6.21292E+00   -19.21
   90.00   196.00       0.72    6.60    7.59    0.30572   -67.65  LEFT      3.07057E+00  -153.03    6.04008E+00   -16.83
   90.00   198.00      -0.31    6.34    7.19    0.28083   -69.52  LEFT      2.72637E+00  -151.12    5.86622E+00   -14.04
   90.00   200.00      -1.57    6.09    6.78    0.25394   -71.79  LEFT      2.35991E+00  -148.39    5.69916E+00   -10.83
   90.00   202.00      -3.09    5.86    6.38    0.22634   -74.53  LEFT      1.97938E+00  -144.35    5.54711E+00    -7.21
   90.00   204.00      -4.96    5.65    6.01    0.20005   -77.76  LEFT      1.59730E+00  -138.03    5.41820E+00    -3.20
   90.00   206.00      -7.18    5.49    5.72    0.17783   -81.48  LEFT      1.23653E+00  -127.44    5.31987E+00     1.15
   90.00   208.00      -9.51    5.39    5.53    0.16272   -85.60  LEFT      9.46279E-01  -108.84    5.25821E+00     5.74
   90.00   210.00     -10.71    5.36    5.46    0.15725   -89.96  LEFT      8.23536E-01   -79.80    5.23720E+00    10.46
   90.00   212.00      -9.55    5.39    5.53    0.16242    85.68  LEFT      9.41655E-01   -50.60    5.25826E+00    15.18
   90.00   214.00      -7.23    5.49    5.72    0.17726    81.56  LEFT      1.22954E+00   -31.79    5.31999E+00    19.78
   90.00   216.00      -5.00    5.65    6.01    0.19926    77.83  LEFT      1.58934E+00   -21.08    5.41842E+00    24.12
   90.00   218.00      -3.13    5.86    6.37    0.22538    74.59  LEFT      1.97105E+00   -14.70    5.54746E+00    28.14
   90.00   220.00      -1.60    6.09    6.77    0.25286    71.85  LEFT      2.35149E+00   -10.62    5.69969E+00    31.76
   90.00   222.00      -0.34    6.34    7.19    0.27967    69.57  LEFT      2.71798E+00    -7.87    5.86695E+00    34.97
   90.00   224.00       0.70    6.60    7.59    0.30451    67.70  LEFT      3.06228E+00    -5.94    6.04105E+00    37.77
   90.00   226.00       1.55    6.84    7.97    0.32664    66.17  LEFT      3.37829E+00    -4.55    6.21415E+00    40.15
   90.00   228.00       2.25    7.07    8.31    0.34574    64.95  LEFT      3.66118E+00    -3.53    6.37905E+00    42.14
   90.00   230.00       2.81    7.27    8.60    0.36171    63.98  LEFT      3.90698E+00    -2.77    6.52942E+00    43.78
   90.00   232.00       3.26    7.44    8.85    0.37459    63.22  LEFT      4.11245E+00    -2.22    6.65985E+00    45.08
   90.00   234.00       3.59    7.58    9.04    0.38446    62.67  LEFT      4.27497E+00    -1.82    6.76589E+00    46.06
   90.00   236.00       3.83    7.68    9.18    0.39142    62.28  LEFT      4.39249E+00    -1.55    6.84409E+00    46.75
   90.00   238.00       3.97    7.74    9.26    0.39556    62.05  LEFT      4.46359E+00    -1.40    6.89199E+00    47.16
   90.00   240.00       4.01    7.76    9.29    0.39693    61.98  LEFT      4.48738E+00    -1.35    6.90812E+00    47.29
   90.00   242.00       3.97    7.74    9.26    0.39556    62.05  LEFT      4.46359E+00    -1.40    6.89199E+00    47.16
   90.00   244.00       3.83    7.68    9.18    0.39142    62.28  LEFT      4.39249E+00    -1.55    6.84409E+00    46.75
   90.00   246.00       3.59    7.58    9.04    0.38446    62.67  LEFT      4.27497E+00    -1.82    6.76589E+00    46.06
   90.00   248.00       3.26    7.44    8.85    0.37459    63.22  LEFT      4.11245E+00    -2.22    6.65985E+00    45.08
   90.00   250.00       2.81    7.27    8.60    0.36171    63.98  LEFT      3.90698E+00    -2.77    6.52942E+00    43.78
   90.00   252.00       2.25    7.07    8.31    0.34574    64.95  LEFT      3.66118E+00    -3.53    6.37905E+00    42.14
   90.00   254.00       1.55    6.84    7.97    0.32664    66.17  LEFT      3.37829E+00    -4.55    6.21415E+00    40.15
   90.00   256.00       0.70    6.60    7.59    0.30451    67.70  LEFT      3.06228E+00    -5.94    6.04105E+00    37.77
   90.00   258.00      -0.34    6.34    7.19    0.27967    69.57  LEFT      2.71798E+00    -7.87    5.86695E+00    34.97
   90.00   260.00      -1.60    6.09    6.77    0.25286    71.85  LEFT      2.35149E+00   -10.62    5.69969E+00    31.76
   90.00   262.00      -3.13    5.86    6.37    0.22538    74.59  LEFT      1.97105E+00   -14.70    5.54746E+00    28.14
   90.00   264.00      -5.00    5.65    6.01    0.19926    77.83  LEFT      1.58934E+00   -21.08    5.41842E+00    24.12
   90.00   266.00      -7.23    5.49    5.72    0.17726    81.56  LEFT      1.22954E+00   -31.79    5.31999E+00    19.78
   90.00   268.00      -9.55    5.39    5.53    0.16242    85.68  LEFT      9.41655E-01   -50.60    5.25826E+00    15.18
   90.00   270.00     -10.71    5.36    5.46    0.15725   -89.96  LEFT      8.23536E-01   -79.80    5.23720E+00    10.46
   90.00   272.00      -9.51    5.39    5.53    0.16272   -85.60  LEFT      9.46279E-01  -108.84    5.25821E+00     5.74
   90.00   274.00      -7.18    5.49    5.72    0.17783   -81.48  LEFT      1.23653E+00  -127.44    5.31987E+00     1.15
   90.00   276.00      -4.96    5.65    6.01    0.20005   -77.76  LEFT      1.59730E+00  -138.03    5.41820E+00    -3.20
   90.00   278.00      -3.09    5.86    6.38    0.22634   -74.53  LEFT      1.97938E+00  -144.35    5.54711E+00    -7.21
   90.00   280.00      -1.57    6.09    6.78    0.25394   -71.79  LEFT      2.35991E+00  -148.39    5.69916E+00   -10.83
   90.00   282.00      -0.31    6.34    7.19    0.28083   -69.52  LEFT      2.72637E+00  -151.12    5.86622E+00   -14.04
   90.00   284.00       0.72    6.60    7.59    0.30572   -67.65  LEFT      3.07057E+00  -153.03    6.04008E+00   -16.83
   90.00   286.00       1.57    6.84    7.97    0.32789   -66.13  LEFT      3.38644E+00  -154.42    6.21292E+00   -19.21
   90.00   288.00       2.27    7.07    8.31    0.34702   -64.91  LEFT      3.66917E+00  -155.44    6.37757E+00   -21.21
   90.00   290.00       2.83    7.27    8.60    0.36301   -63.94  LEFT      3.91481E+00  -156.19    6.52769E+00   -22.84
   90.00   292.00       3.27    7.44    8.85    0.37590   -63.19  LEFT      4.12014E+00  -156.74    6.65789E+00   -24.14
   90.00   294.00       3.61    7.58    9.04    0.38578   -62.63  LEFT      4.28253E+00  -157.13    6.76374E+00   -25.12
   90.00   296.00       3.84    7.68    9.18    0.39275   -62.24  LEFT      4.39997E+00  -157.40    6.84180E+00   -25.81
   90.00   298.00       3.98    7.74    9.26    0.39689   -62.02  LEFT      4.47100E+00  -157.55    6.88962E+00   -26.22
   90.00   300.00       4.03    7.76    9.29    0.39826   -61.94  LEFT      4.49478E+00  -157.60    6.90572E+00   -26.35
   90.00   302.00       3.98    7.74    9.26    0.39689   -62.02  LEFT      4.47100E+00  -157.55    6.88962E+00   -26.22
   90.00   304.00       3.84    7.68    9.18    0.39275   -62.24  LEFT      4.39997E+00  -157.40    6.84180E+00   -25.81
   90.00   306.00       3.61    7.58    9.04    0.38578   -62.63  LEFT      4.28253E+00  -157.13    6.76374E+00   -25.12
   90.00   308.00       3.27    7.44    8.85    0.37590   -63.19  LEFT      4.12014E+00  -156.74    6.65789E+00   -24.14
   90.00   310.00       2.83    7.27    8.60    0.36301   -63.94  LEFT      3.91481E+00  -156.19    6.52769E+00   -22.84
   90.00   312.00       2.27    7.07    8.31    0.34702   -64.91  LEFT      3.66917E+00  -155.44    6.37757E+00   -21.21
   90.00   314.00       1.57    6.84    7.97    0.32789   -66.13  LEFT      3.38644E+00  -154.42    6.21292E+00   -19.21
   90.00   316.00       0.72    6.60    7.59    0.30572   -67.65  LEFT      3.07057E+00  -153.03    6.04008E+00   -16.83
   90.00   318.00      -0.31    6.34    7.19    0.28083   -69.52  LEFT      2.72637E+00  -151.12    5.86622E+00   -14.04
   90.00   320.00      -1.57    6.09    6.78    0.25394   -71.79  LEFT      2.35991E+00  -148.39    5.69916E+00   -10.83
   90.00   322.00      -3.09    5.86    6.38    0.22634   -74.53  LEFT      1.97938E+00  -144.35    5.54711E+00    -7.21
   90.00   324.00      -4.96    5.65    6.01    0.20005   -77.76  LEFT      1.59730E+00  -138.03    5.41820E+00    -3.20
   90.00   326.00      -7.18    5.49    5.72    0.17783   -81.48  LEFT      1.23653E+00  -127.44    5.31987E+00     1.15
   90.00   328.00      -9.51    5.39    5.53    0.16272   -85.60  LEFT      9.46279E-01  -108.84    5.25821E+00     5.74
   90.00   330.00     -10.71    5.36    5.46    0.15725   -89.96  LEFT      8.23536E-01   -79.80    5.23720E+00    10.46
   90.00   332.00      -9.55    5.39    5.53    0.16242    85.68  LEFT      9.41655E-01   -50.60    5.25826E+00    15.18
   90.00   334.00      -7.23    5.49    5.72    0.17726    81.56  LEFT      1.22954E+00   -31.79    5.31999E+00    19.78
   90.00   336.00      -5.00    5.65    6.01    0.19926    77.83  LEFT      1.58934E+00   -21.08    5.41842E+00    24.12
   90.00   338.00      -3.13    5.86    6.37    0.22538    74.59  LEFT      1.97105E+00   -14.70    5.54746E+00    28.14
   90.00   340.00      -1.60    6.09    6.77    0.25286    71.85  LEFT      2.35149E+00   -10.62    5.69969E+00    31.76
   90.00   342.00      -0.34    6.34    7.19    0.27967    69.57  LEFT      2.71798E+00    -7.87    5.86695E+00    34.97
   90.00   344.00       0.70    6.60    7.59    0.30451    67.70  LEFT      3.06228E+00    -5.94    6.04105E+00    37.77
   90.00   346.00       1.55    6.84    7.97    0.32664    66.17  LEFT      3.37829E+00    -4.55    6.21415E+00    40.15
   90.00   348.00       2.25    7.07    8.31    0.34574    64.95  LEFT      3.66118E+00    -3.53    6.37905E+00    42.14
   90.00   350.00       2.81    7.27    8.60    0.36171    63.98  LEFT      3.90698E+00    -2.77    6.52942E+00    43.78
   90.00   352.00       3.26    7.44    8.85    0.37459    63.22  LEFT      4.11245E+00    -2.22    6.65985E+00    45.08
   90.00   354.00       3.59    7.58    9.04    0.38446    62.67  LEFT      4.27497E+00    -1.82    6.76589E+00    46.06
   90.00   356.00       3.83    7.68    9.18    0.39142    62.28  LEFT      4.39249E+00    -1.55    6.84409E+00    46.75
   90.00   358.00       3.97    7.74    9.26    0.39556    62.05  LEFT      4.46359E+00    -1.40    6.89199E+00    47.16
   90.00   360.00       4.01    7.76    9.29    0.39693    61.98  LEFT      4.48738E+00    -1.35    6.90812E+00    47.29






 ***** DATA CARD NO. 20   EN   0     1   181  1000  9.00000E+01  0.00000E+00  1.00000E+00  2.00000E+00  0.00000E+00  0.00000E+00

 RUN TIME =     0.281
