1



                                 *********************************************

                                    NUMERICAL ELECTROMAGNETICS CODE (NEC-2D)

                                 *********************************************




                                     - - - - COMMENTS - - - -


                          2-part Helix model                                                         
                          1st 2-turns are used as matching section, smaller pitch.                   
                          2nd set of N-2 turns are standard pitch and spacing.                       
                                                                                                     




                                 - - - STRUCTURE SPECIFICATION - - -

                                     COORDINATES MUST BE INPUT IN
                                     METERS OR BE SCALED TO METERS
                                     BEFORE STRUCTURE INPUT IS ENDED


  WIRE                                                                               NO. OF    FIRST  LAST     TAG
  NO.        X1         Y1         Z1          X2         Y2         Z2      RADIUS   SEG.     SEG.   SEG.     NO.
     HELIX STRUCTURE-   AXIAL SPACING BETWEEN TURNS =   0.169 TOTAL AXIAL LENGTH =   0.337
     1  RADIUS OF HELIX =     0.191     0.191     0.191     0.191           0.00100      44        1    44       1
     THE PITCH ANGLE IS    8.0000
     THE LENGTH OF WIRE/TURN IS    1.2118
     HELIX STRUCTURE-   AXIAL SPACING BETWEEN TURNS =   0.266 TOTAL AXIAL LENGTH =   1.064
     2  RADIUS OF HELIX =     0.191     0.191     0.191     0.191           0.00100      88       45   132       2
     THE PITCH ANGLE IS   12.5000
     THE LENGTH OF WIRE/TURN IS    1.2291
      THE STRUCTURE HAS BEEN MOVED, MOVE DATA CARD IS -
        0    0   0.00000   0.00000   0.00000   0.00000   0.00000   0.33730   2.00000

   GROUND PLANE SPECIFIED.

   WHERE WIRE ENDS TOUCH GROUND, CURRENT WILL BE INTERPOLATED TO IMAGE IN GROUND PLANE.


   TOTAL SEGMENTS USED=  132     NO. SEG. IN A SYMMETRIC CELL=  132     SYMMETRY FLAG=  0


         - MULTIPLE WIRE JUNCTIONS -
 JUNCTION    SEGMENTS  (- FOR END 1, + FOR END 2)
  NONE




                                 - - - - SEGMENTATION DATA - - - -

                                        COORDINATES IN METERS

                         I+ AND I- INDICATE THE SEGMENTS BEFORE AND AFTER I


  SEG.   COORDINATES OF SEG. CENTER     SEG.     ORIENTATION ANGLES    WIRE    CONNECTION DATA   TAG
  NO.       X         Y         Z       LENGTH     ALPHA     BETA      RADIUS    I-   I    I+    NO.
     1   0.18712   0.02690   0.00383   0.05490    8.02690  98.18182   0.00100     1    1    2      1
     2   0.17196   0.07853   0.01150   0.05490    8.02690 114.54545   0.00100     1    2    3      1
     3   0.14287   0.12380   0.01916   0.05490    8.02690 130.90909   0.00100     2    3    4      1
     4   0.10220   0.15903   0.02683   0.05490    8.02690 147.27273   0.00100     3    4    5      1
     5   0.05326   0.18138   0.03450   0.05490    8.02690 163.63636   0.00100     4    5    6      1
     6   0.00000   0.18904   0.04216   0.05490    8.02690 180.00000   0.00100     5    6    7      1
     7  -0.05326   0.18138   0.04983   0.05490    8.02690-163.63637   0.00100     6    7    8      1
     8  -0.10220   0.15903   0.05749   0.05490    8.02690-147.27273   0.00100     7    8    9      1
     9  -0.14287   0.12380   0.06516   0.05490    8.02690-130.90909   0.00100     8    9   10      1
    10  -0.17196   0.07853   0.07283   0.05490    8.02690-114.54546   0.00100     9   10   11      1
    11  -0.18712   0.02690   0.08049   0.05490    8.02690 -98.18182   0.00100    10   11   12      1
    12  -0.18712  -0.02690   0.08816   0.05490    8.02690 -81.81819   0.00100    11   12   13      1
    13  -0.17196  -0.07853   0.09582   0.05490    8.02690 -65.45455   0.00100    12   13   14      1
    14  -0.14287  -0.12380   0.10349   0.05490    8.02690 -49.09091   0.00100    13   14   15      1
    15  -0.10220  -0.15903   0.11116   0.05490    8.02690 -32.72728   0.00100    14   15   16      1
    16  -0.05326  -0.18138   0.11882   0.05490    8.02690 -16.36364   0.00100    15   16   17      1
    17   0.00000  -0.18904   0.12649   0.05490    8.02690   0.00000   0.00100    16   17   18      1
    18   0.05326  -0.18138   0.13415   0.05490    8.02690  16.36363   0.00100    17   18   19      1
    19   0.10220  -0.15903   0.14182   0.05490    8.02690  32.72727   0.00100    18   19   20      1
    20   0.14287  -0.12380   0.14948   0.05490    8.02690  49.09090   0.00100    19   20   21      1
    21   0.17196  -0.07853   0.15715   0.05490    8.02690  65.45454   0.00100    20   21   22      1
    22   0.18712  -0.02690   0.16482   0.05490    8.02690  81.81818   0.00100    21   22   23      1
    23   0.18712   0.02690   0.17248   0.05490    8.02690  98.18181   0.00100    22   23   24      1
    24   0.17196   0.07853   0.18015   0.05490    8.02690 114.54545   0.00100    23   24   25      1
    25   0.14287   0.12380   0.18781   0.05490    8.02690 130.90908   0.00100    24   25   26      1
    26   0.10220   0.15903   0.19548   0.05490    8.02690 147.27272   0.00100    25   26   27      1
    27   0.05326   0.18138   0.20315   0.05490    8.02690 163.63636   0.00100    26   27   28      1
    28   0.00000   0.18904   0.21081   0.05490    8.02690 179.99999   0.00100    27   28   29      1
    29  -0.05326   0.18138   0.21848   0.05490    8.02690-163.63637   0.00100    28   29   30      1
    30  -0.10220   0.15903   0.22614   0.05490    8.02690-147.27274   0.00100    29   30   31      1
    31  -0.14287   0.12380   0.23381   0.05490    8.02690-130.90910   0.00100    30   31   32      1
    32  -0.17196   0.07853   0.24147   0.05490    8.02690-114.54546   0.00100    31   32   33      1
    33  -0.18712   0.02690   0.24914   0.05490    8.02690 -98.18183   0.00100    32   33   34      1
    34  -0.18712  -0.02690   0.25681   0.05490    8.02690 -81.81819   0.00100    33   34   35      1
    35  -0.17196  -0.07853   0.26447   0.05490    8.02690 -65.45456   0.00100    34   35   36      1
    36  -0.14287  -0.12380   0.27214   0.05490    8.02690 -49.09092   0.00100    35   36   37      1
    37  -0.10220  -0.15903   0.27980   0.05490    8.02690 -32.72728   0.00100    36   37   38      1
    38  -0.05326  -0.18138   0.28747   0.05490    8.02690 -16.36365   0.00100    37   38   39      1
    39   0.00000  -0.18904   0.29514   0.05490    8.02690  -0.00001   0.00100    38   39   40      1
    40   0.05326  -0.18138   0.30280   0.05490    8.02690  16.36363   0.00100    39   40   41      1
    41   0.10220  -0.15903   0.31047   0.05490    8.02690  32.72726   0.00100    40   41   42      1
    42   0.14287  -0.12380   0.31813   0.05490    8.02690  49.09090   0.00100    41   42   43      1
    43   0.17196  -0.07853   0.32580   0.05490    8.02690  65.45453   0.00100    42   43   44      1
    44   0.18712  -0.02690   0.33347   0.05490    8.02690  81.81817   0.00100    43   44   45      1
    45   0.18712   0.02690   0.34334   0.05569   12.54124  98.18181   0.00100    44   45   46      2
    46   0.17196   0.07853   0.35544   0.05569   12.54124 114.54545   0.00100    45   46   47      2
    47   0.14287   0.12380   0.36753   0.05569   12.54124 130.90909   0.00100    46   47   48      2
    48   0.10220   0.15903   0.37962   0.05569   12.54124 147.27273   0.00100    47   48   49      2
    49   0.05326   0.18138   0.39171   0.05569   12.54124 163.63636   0.00100    48   49   50      2
    50   0.00000   0.18904   0.40381   0.05569   12.54124 180.00000   0.00100    49   50   51      2
    51  -0.05326   0.18138   0.41590   0.05569   12.54124-163.63637   0.00100    50   51   52      2
    52  -0.10220   0.15903   0.42799   0.05569   12.54124-147.27273   0.00100    51   52   53      2
    53  -0.14287   0.12380   0.44008   0.05569   12.54124-130.90909   0.00100    52   53   54      2
    54  -0.17196   0.07853   0.45218   0.05569   12.54124-114.54546   0.00100    53   54   55      2
    55  -0.18712   0.02690   0.46427   0.05569   12.54124 -98.18182   0.00100    54   55   56      2
    56  -0.18712  -0.02690   0.47636   0.05569   12.54124 -81.81819   0.00100    55   56   57      2
    57  -0.17196  -0.07853   0.48845   0.05569   12.54124 -65.45455   0.00100    56   57   58      2
    58  -0.14287  -0.12380   0.50055   0.05569   12.54124 -49.09091   0.00100    57   58   59      2
    59  -0.10220  -0.15903   0.51264   0.05569   12.54124 -32.72728   0.00100    58   59   60      2
    60  -0.05326  -0.18138   0.52473   0.05569   12.54124 -16.36364   0.00100    59   60   61      2
    61   0.00000  -0.18904   0.53682   0.05569   12.54124   0.00000   0.00100    60   61   62      2
    62   0.05326  -0.18138   0.54892   0.05569   12.54124  16.36363   0.00100    61   62   63      2
    63   0.10220  -0.15903   0.56101   0.05569   12.54124  32.72727   0.00100    62   63   64      2
    64   0.14287  -0.12380   0.57310   0.05569   12.54124  49.09090   0.00100    63   64   65      2
    65   0.17196  -0.07853   0.58519   0.05569   12.54124  65.45454   0.00100    64   65   66      2
    66   0.18712  -0.02690   0.59729   0.05569   12.54124  81.81818   0.00100    65   66   67      2
    67   0.18712   0.02690   0.60938   0.05569   12.54124  98.18181   0.00100    66   67   68      2
    68   0.17196   0.07853   0.62147   0.05569   12.54124 114.54545   0.00100    67   68   69      2
    69   0.14287   0.12380   0.63356   0.05569   12.54124 130.90908   0.00100    68   69   70      2
    70   0.10220   0.15903   0.64566   0.05569   12.54124 147.27272   0.00100    69   70   71      2
    71   0.05326   0.18138   0.65775   0.05569   12.54124 163.63636   0.00100    70   71   72      2
    72   0.00000   0.18904   0.66984   0.05569   12.54124 179.99999   0.00100    71   72   73      2
    73  -0.05326   0.18138   0.68193   0.05569   12.54124-163.63637   0.00100    72   73   74      2
    74  -0.10220   0.15903   0.69402   0.05569   12.54124-147.27274   0.00100    73   74   75      2
    75  -0.14287   0.12380   0.70612   0.05569   12.54124-130.90910   0.00100    74   75   76      2
    76  -0.17196   0.07853   0.71821   0.05569   12.54124-114.54546   0.00100    75   76   77      2
    77  -0.18712   0.02690   0.73030   0.05569   12.54124 -98.18183   0.00100    76   77   78      2
    78  -0.18712  -0.02690   0.74239   0.05569   12.54124 -81.81819   0.00100    77   78   79      2
    79  -0.17196  -0.07853   0.75449   0.05569   12.54124 -65.45456   0.00100    78   79   80      2
    80  -0.14287  -0.12380   0.76658   0.05569   12.54124 -49.09092   0.00100    79   80   81      2
    81  -0.10220  -0.15903   0.77867   0.05569   12.54124 -32.72728   0.00100    80   81   82      2
    82  -0.05326  -0.18138   0.79076   0.05569   12.54124 -16.36365   0.00100    81   82   83      2
    83   0.00000  -0.18904   0.80286   0.05569   12.54124  -0.00001   0.00100    82   83   84      2
    84   0.05326  -0.18138   0.81495   0.05569   12.54124  16.36363   0.00100    83   84   85      2
    85   0.10220  -0.15903   0.82704   0.05569   12.54124  32.72726   0.00100    84   85   86      2
    86   0.14287  -0.12380   0.83913   0.05569   12.54124  49.09090   0.00100    85   86   87      2
    87   0.17196  -0.07853   0.85123   0.05569   12.54124  65.45453   0.00100    86   87   88      2
    88   0.18712  -0.02690   0.86332   0.05569   12.54124  81.81817   0.00100    87   88   89      2
    89   0.18712   0.02690   0.87541   0.05569   12.54124  98.18181   0.00100    88   89   90      2
    90   0.17196   0.07853   0.88750   0.05569   12.54124 114.54544   0.00100    89   90   91      2
    91   0.14287   0.12380   0.89960   0.05569   12.54124 130.90908   0.00100    90   91   92      2
    92   0.10220   0.15903   0.91169   0.05569   12.54124 147.27271   0.00100    91   92   93      2
    93   0.05326   0.18138   0.92378   0.05569   12.54124 163.63635   0.00100    92   93   94      2
    94   0.00000   0.18904   0.93587   0.05569   12.54124 179.99999   0.00100    93   94   95      2
    95  -0.05326   0.18138   0.94797   0.05569   12.54124-163.63638   0.00100    94   95   96      2
    96  -0.10220   0.15903   0.96006   0.05569   12.54124-147.27274   0.00100    95   96   97      2
    97  -0.14287   0.12380   0.97215   0.05569   12.54124-130.90911   0.00100    96   97   98      2
    98  -0.17196   0.07853   0.98424   0.05569   12.54124-114.54547   0.00100    97   98   99      2
    99  -0.18712   0.02690   0.99634   0.05569   12.54124 -98.18183   0.00100    98   99  100      2
   100  -0.18712  -0.02690   1.00843   0.05569   12.54124 -81.81820   0.00100    99  100  101      2
   101  -0.17196  -0.07853   1.02052   0.05569   12.54124 -65.45456   0.00100   100  101  102      2
   102  -0.14287  -0.12380   1.03261   0.05569   12.54124 -49.09093   0.00100   101  102  103      2
   103  -0.10220  -0.15903   1.04471   0.05569   12.54124 -32.72729   0.00100   102  103  104      2
   104  -0.05326  -0.18138   1.05680   0.05569   12.54124 -16.36365   0.00100   103  104  105      2
   105   0.00000  -0.18904   1.06889   0.05569   12.54124  -0.00002   0.00100   104  105  106      2
   106   0.05326  -0.18138   1.08098   0.05569   12.54124  16.36362   0.00100   105  106  107      2
   107   0.10220  -0.15903   1.09308   0.05569   12.54124  32.72726   0.00100   106  107  108      2
   108   0.14287  -0.12380   1.10517   0.05569   12.54124  49.09089   0.00100   107  108  109      2
   109   0.17196  -0.07853   1.11726   0.05569   12.54124  65.45453   0.00100   108  109  110      2
   110   0.18712  -0.02690   1.12935   0.05569   12.54124  81.81816   0.00100   109  110  111      2
   111   0.18712   0.02690   1.14145   0.05569   12.54124  98.18180   0.00100   110  111  112      2
   112   0.17196   0.07853   1.15354   0.05569   12.54124 114.54544   0.00100   111  112  113      2
   113   0.14287   0.12380   1.16563   0.05569   12.54124 130.90907   0.00100   112  113  114      2
   114   0.10220   0.15903   1.17772   0.05569   12.54124 147.27271   0.00100   113  114  115      2
   115   0.05326   0.18138   1.18981   0.05569   12.54124 163.63634   0.00100   114  115  116      2
   116   0.00000   0.18904   1.20191   0.05569   12.54124 179.99998   0.00100   115  116  117      2
   117  -0.05326   0.18138   1.21400   0.05569   12.54124-163.63638   0.00100   116  117  118      2
   118  -0.10220   0.15903   1.22609   0.05569   12.54124-147.27275   0.00100   117  118  119      2
   119  -0.14287   0.12380   1.23818   0.05569   12.54124-130.90911   0.00100   118  119  120      2
   120  -0.17196   0.07853   1.25028   0.05569   12.54124-114.54548   0.00100   119  120  121      2
   121  -0.18712   0.02690   1.26237   0.05569   12.54124 -98.18184   0.00100   120  121  122      2
   122  -0.18712  -0.02690   1.27446   0.05569   12.54124 -81.81820   0.00100   121  122  123      2
   123  -0.17196  -0.07853   1.28655   0.05569   12.54124 -65.45457   0.00100   122  123  124      2
   124  -0.14287  -0.12380   1.29865   0.05569   12.54124 -49.09093   0.00100   123  124  125      2
   125  -0.10220  -0.15903   1.31074   0.05569   12.54124 -32.72730   0.00100   124  125  126      2
   126  -0.05326  -0.18138   1.32283   0.05569   12.54124 -16.36366   0.00100   125  126  127      2
   127   0.00000  -0.18904   1.33492   0.05569   12.54124  -0.00002   0.00100   126  127  128      2
   128   0.05326  -0.18138   1.34702   0.05569   12.54124  16.36361   0.00100   127  128  129      2
   129   0.10220  -0.15903   1.35911   0.05569   12.54124  32.72725   0.00100   128  129  130      2
   130   0.14287  -0.12380   1.37120   0.05569   12.54124  49.09089   0.00100   129  130  131      2
   131   0.17196  -0.07853   1.38329   0.05569   12.54124  65.45452   0.00100   130  131  132      2
   132   0.18712  -0.02690   1.39539   0.05569   12.54124  81.81816   0.00100   131  132    0      2






 ***** DATA CARD NO.  1   GN   1     0     0     0  0.00000E+00  0.00000E+00  0.00000E+00  0.00000E+00  0.00000E+00  0.00000E+00
 ***** DATA CARD NO.  2   EK   0     0     0     0  0.00000E+00  0.00000E+00  0.00000E+00  0.00000E+00  0.00000E+00  0.00000E+00
 ***** DATA CARD NO.  3   EX   0     1     2     0  1.00000E+00  0.00000E+00  0.00000E+00  0.00000E+00  0.00000E+00  0.00000E+00
 ***** DATA CARD NO.  4   FR   0     0     0     0  3.00000E+02  0.00000E+00  0.00000E+00  0.00000E+00  0.00000E+00  0.00000E+00
 ***** DATA CARD NO.  5   RP   0    91     1  1000 -9.00000E+01  0.00000E+00  2.00000E+00  1.00000E+00  0.00000E+00  0.00000E+00




                                 - - - - - - FREQUENCY - - - - - -

                                    FREQUENCY= 3.0000E+02 MHZ
                                    WAVELENGTH= 9.9933E-01 METERS




                    APPROXIMATE INTEGRATION EMPLOYED FOR SEGMENTS MORE THAN   1.000 WAVELENGTHS APART

                    THE EXTENDED THIN WIRE KERNEL WILL BE USED



                               - - - STRUCTURE IMPEDANCE LOADING - - -

                                   THIS STRUCTURE IS NOT LOADED



                                  - - - ANTENNA ENVIRONMENT - - -

                                          PERFECT GROUND



                                - - - MATRIX TIMING - - -

                        FILL=    3.630 SEC.,  FACTOR=    1.370 SEC.



                                          - - - ANTENNA INPUT PARAMETERS - - -

   TAG   SEG.    VOLTAGE (VOLTS)         CURRENT (AMPS)         IMPEDANCE (OHMS)        ADMITTANCE (MHOS)      POWER
   NO.   NO.    REAL        IMAG.       REAL        IMAG.       REAL        IMAG.       REAL        IMAG.     (WATTS)
     1     2 1.00000E+00 0.00000E+00 4.91368E-03-9.49039E-05 2.03438E+02 3.92924E+00 4.91368E-03-9.49039E-05 2.45684E-03



                             - - - CURRENTS AND LOCATION - - -

                                 DISTANCES IN WAVELENGTHS


  SEG.  TAG    COORD. OF SEG. CENTER     SEG.            - - - CURRENT (AMPS) - - -
  NO.   NO.     X        Y        Z      LENGTH     REAL        IMAG.       MAG.        PHASE
     1    1   0.1872   0.0269   0.0038  0.05493   5.3237E-03  8.7600E-05  5.3244E-03    0.943
     2    1   0.1721   0.0786   0.0115  0.05493   4.9137E-03 -9.4904E-05  4.9146E-03   -1.106
     3    1   0.1430   0.1239   0.0192  0.05493   4.0878E-03 -1.5165E-03  4.3601E-03  -20.354
     4    1   0.1023   0.1591   0.0268  0.05493   2.9148E-03 -2.8120E-03  4.0501E-03  -43.972
     5    1   0.0533   0.1815   0.0345  0.05493   1.5111E-03 -3.6944E-03  3.9915E-03  -67.755
     6    1   0.0000   0.1892   0.0422  0.05493   1.9912E-05 -4.1193E-03  4.1194E-03  -89.723
     7    1  -0.0533   0.1815   0.0499  0.05493  -1.4060E-03 -4.0689E-03  4.3050E-03 -109.063
     8    1  -0.1023   0.1591   0.0575  0.05493  -2.6218E-03 -3.5686E-03  4.4282E-03 -126.304
     9    1  -0.1430   0.1239   0.0652  0.05493  -3.5062E-03 -2.6879E-03  4.4179E-03 -142.525
    10    1  -0.1721   0.0786   0.0729  0.05493  -3.9751E-03 -1.5340E-03  4.2608E-03 -158.899
    11    1  -0.1872   0.0269   0.0805  0.05493  -3.9907E-03 -2.4076E-04  3.9980E-03 -176.547
    12    1  -0.1872  -0.0269   0.0882  0.05493  -3.5648E-03  1.0457E-03  3.7150E-03  163.651
    13    1  -0.1721  -0.0786   0.0959  0.05493  -2.7571E-03  2.1833E-03  3.5169E-03  141.625
    14    1  -0.1430  -0.1239   0.1036  0.05493  -1.6680E-03  3.0494E-03  3.4758E-03  118.678
    15    1  -0.1023  -0.1591   0.1112  0.05493  -4.2626E-04  3.5543E-03  3.5798E-03   96.839
    16    1  -0.0533  -0.1815   0.1189  0.05493   8.2563E-04  3.6505E-03  3.7427E-03   77.256
    17    1   0.0000  -0.1892   0.1266  0.05493   1.9481E-03  3.3373E-03  3.8643E-03   59.727
    18    1   0.0533  -0.1815   0.1342  0.05493   2.8202E-03  2.6605E-03  3.8771E-03   43.332
    19    1   0.1023  -0.1591   0.1419  0.05493   3.3528E-03  1.7057E-03  3.7618E-03   26.965
    20    1   0.1430  -0.1239   0.1496  0.05493   3.4983E-03  5.8826E-04  3.5474E-03    9.545
    21    1   0.1721  -0.0786   0.1573  0.05493   3.2545E-03 -5.6054E-04  3.3024E-03   -9.772
    22    1   0.1872  -0.0269   0.1649  0.05493   2.6637E-03 -1.6081E-03  3.1115E-03  -31.120
    23    1   0.1872   0.0269   0.1726  0.05493   1.8066E-03 -2.4359E-03  3.0327E-03  -53.437
    24    1   0.1721   0.0786   0.1803  0.05493   7.9123E-04 -2.9530E-03  3.0572E-03  -75.000
    25    1   0.1430   0.1239   0.1879  0.05493  -2.6007E-04 -3.1083E-03  3.1192E-03  -94.783
    26    1   0.1023   0.1591   0.1956  0.05493  -1.2256E-03 -2.8963E-03  3.1450E-03 -112.935
    27    1   0.0533   0.1815   0.2033  0.05493  -1.9983E-03 -2.3553E-03  3.0888E-03 -130.312
    28    1   0.0000   0.1892   0.2110  0.05493  -2.4980E-03 -1.5607E-03  2.9455E-03 -148.004
    29    1  -0.0533   0.1815   0.2186  0.05493  -2.6800E-03 -6.1474E-04  2.7496E-03 -167.081
    30    1  -0.1023   0.1591   0.2263  0.05493  -2.5387E-03  3.6599E-04  2.5650E-03  171.797
    31    1  -0.1430   0.1239   0.2340  0.05493  -2.1075E-03  1.2648E-03  2.4579E-03  149.031
    32    1  -0.1721   0.0786   0.2416  0.05493  -1.4530E-03  1.9783E-03  2.4546E-03  126.296
    33    1  -0.1872   0.0269   0.2493  0.05493  -6.6616E-04  2.4289E-03  2.5186E-03  105.337
    34    1  -0.1872  -0.0269   0.2570  0.05493   1.4977E-04  2.5727E-03  2.5770E-03   86.668
    35    1  -0.1721  -0.0786   0.2646  0.05493   8.9244E-04  2.4043E-03  2.5646E-03   69.636
    36    1  -0.1430  -0.1239   0.2723  0.05493   1.4731E-03  1.9563E-03  2.4488E-03   53.020
    37    1  -0.1023  -0.1591   0.2800  0.05493   1.8271E-03  1.2940E-03  2.2389E-03   35.307
    38    1  -0.0533  -0.1815   0.2877  0.05493   1.9218E-03  5.0687E-04  1.9875E-03   14.775
    39    1   0.0000  -0.1892   0.2953  0.05493   1.7591E-03 -3.0368E-04  1.7851E-03   -9.795
    40    1   0.0533  -0.1815   0.3030  0.05493   1.3745E-03 -1.0369E-03  1.7217E-03  -37.030
    41    1   0.1023  -0.1591   0.3107  0.05493   8.3129E-04 -1.6053E-03  1.8077E-03  -62.622
    42    1   0.1430  -0.1239   0.3183  0.05493   2.1144E-04 -1.9450E-03  1.9564E-03  -83.796
    43    1   0.1721  -0.0786   0.3260  0.05493  -3.9581E-04 -2.0231E-03  2.0615E-03 -101.070
    44    1   0.1872  -0.0269   0.3337  0.05493  -9.0594E-04 -1.8408E-03  2.0516E-03 -116.204
    45    2   0.1872   0.0269   0.3436  0.05573  -1.2529E-03 -1.4286E-03  1.9001E-03 -131.251
    46    2   0.1721   0.0786   0.3557  0.05573  -1.3943E-03 -8.4760E-04  1.6317E-03 -148.704
    47    2   0.1430   0.1239   0.3678  0.05573  -1.3136E-03 -1.8280E-04  1.3263E-03 -172.078
    48    2   0.1023   0.1591   0.3799  0.05573  -1.0289E-03  4.7507E-04  1.1332E-03  155.215
    49    2   0.0533   0.1815   0.3920  0.05573  -5.8667E-04  1.0391E-03  1.1933E-03  119.449
    50    2   0.0000   0.1892   0.4041  0.05573  -5.5587E-05  1.4375E-03  1.4386E-03   92.214
    51    2  -0.0533   0.1815   0.4162  0.05573   4.8398E-04  1.6229E-03  1.6935E-03   73.394
    52    2  -0.1023   0.1591   0.4283  0.05573   9.5102E-04  1.5779E-03  1.8423E-03   58.922
    53    2  -0.1430   0.1239   0.4404  0.05573   1.2752E-03  1.3167E-03  1.8330E-03   45.917
    54    2  -0.1721   0.0786   0.4525  0.05573   1.4068E-03  8.8274E-04  1.6608E-03   32.108
    55    2  -0.1872   0.0269   0.4646  0.05573   1.3234E-03  3.4187E-04  1.3668E-03   14.485
    56    2  -0.1872  -0.0269   0.4767  0.05573   1.0334E-03 -2.2667E-04  1.0580E-03  -12.372
    57    2  -0.1721  -0.0786   0.4888  0.05573   5.7492E-04 -7.4156E-04  9.3832E-04  -52.214
    58    2  -0.1430  -0.1239   0.5009  0.05573   1.0733E-05 -1.1306E-03  1.1307E-03  -89.456
    59    2  -0.1023  -0.1591   0.5130  0.05573  -5.8029E-04 -1.3409E-03  1.4611E-03 -113.401
    60    2  -0.0533  -0.1815   0.5251  0.05573  -1.1140E-03 -1.3458E-03  1.7470E-03 -129.617
    61    2   0.0000  -0.1892   0.5372  0.05573  -1.5127E-03 -1.1486E-03  1.8993E-03 -142.791
    62    2   0.0533  -0.1815   0.5493  0.05573  -1.7159E-03 -7.8178E-04  1.8856E-03 -155.505
    63    2   0.1023  -0.1591   0.5614  0.05573  -1.6892E-03 -3.0227E-04  1.7160E-03 -169.855
    64    2   0.1430  -0.1239   0.5735  0.05573  -1.4294E-03  2.1718E-04  1.4459E-03  171.361
    65    2   0.1721  -0.0786   0.5856  0.05573  -9.6549E-04  6.9841E-04  1.1916E-03  144.119
    66    2   0.1872  -0.0269   0.5977  0.05573  -3.5483E-04  1.0692E-03  1.1266E-03  108.359
    67    2   0.1872   0.0269   0.6098  0.05573   3.2383E-04  1.2739E-03  1.3144E-03   75.737
    68    2   0.1721   0.0786   0.6219  0.05573   9.8109E-04  1.2812E-03  1.6137E-03   52.557
    69    2   0.1430   0.1239   0.6340  0.05573   1.5288E-03  1.0888E-03  1.8769E-03   35.457
    70    2   0.1023   0.1591   0.6461  0.05573   1.8922E-03  7.2365E-04  2.0258E-03   20.929
    71    2   0.0533   0.1815   0.6582  0.05573   2.0198E-03  2.3822E-04  2.0338E-03    6.727
    72    2   0.0000   0.1892   0.6703  0.05573   1.8909E-03 -2.9710E-04  1.9141E-03   -8.929
    73    2  -0.0533   0.1815   0.6824  0.05573   1.5186E-03 -8.0393E-04  1.7183E-03  -27.896
    74    2  -0.1023   0.1591   0.6945  0.05573   9.4799E-04 -1.2070E-03  1.5348E-03  -51.853
    75    2  -0.1430   0.1239   0.7066  0.05573   2.5048E-04 -1.4448E-03  1.4664E-03  -80.165
    76    2  -0.1721   0.0786   0.7187  0.05573  -4.8534E-04 -1.4786E-03  1.5562E-03 -108.172
    77    2  -0.1872   0.0269   0.7308  0.05573  -1.1655E-03 -1.2979E-03  1.7444E-03 -131.923
    78    2  -0.1872  -0.0269   0.7429  0.05573  -1.7028E-03 -9.2252E-04  1.9366E-03 -151.552
    79    2  -0.1721  -0.0786   0.7550  0.05573  -2.0285E-03 -4.0034E-04  2.0676E-03 -168.836
    80    2  -0.1430  -0.1239   0.7671  0.05573  -2.1011E-03  1.9909E-04  2.1105E-03  174.587
    81    2  -0.1023  -0.1591   0.7792  0.05573  -1.9120E-03  7.9368E-04  2.0702E-03  157.457
    82    2  -0.0533  -0.1815   0.7913  0.05573  -1.4862E-03  1.3000E-03  1.9746E-03  138.823
    83    2   0.0000  -0.1892   0.8034  0.05573  -8.7924E-04  1.6450E-03  1.8652E-03  118.125
    84    2   0.0533  -0.1815   0.8155  0.05573  -1.6945E-04  1.7757E-03  1.7838E-03   95.451
    85    2   0.1023  -0.1591   0.8276  0.05573   5.5211E-04  1.6678E-03  1.7568E-03   71.683
    86    2   0.1430  -0.1239   0.8397  0.05573   1.1938E-03  1.3287E-03  1.7862E-03   48.060
    87    2   0.1721  -0.0786   0.8518  0.05573   1.6754E-03  7.9761E-04  1.8556E-03   25.458
    88    2   0.1872  -0.0269   0.8639  0.05573   1.9382E-03  1.4070E-04  1.9433E-03    4.152
    89    2   0.1872   0.0269   0.8760  0.05573   1.9528E-03 -5.5760E-04  2.0308E-03  -15.937
    90    2   0.1721   0.0786   0.8881  0.05573   1.7219E-03 -1.2056E-03  2.1020E-03  -34.998
    91    2   0.1430   0.1239   0.9002  0.05573   1.2801E-03 -1.7166E-03  2.1413E-03  -53.286
    92    2   0.1023   0.1591   0.9123  0.05573   6.8846E-04 -2.0202E-03  2.1343E-03  -71.182
    93    2   0.0533   0.1815   0.9244  0.05573   2.5959E-05 -2.0724E-03  2.0726E-03  -89.282
    94    2   0.0000   0.1892   0.9365  0.05573  -6.2081E-04 -1.8611E-03  1.9619E-03 -108.447
    95    2  -0.0533   0.1815   0.9486  0.05573  -1.1693E-03 -1.4082E-03  1.8304E-03 -129.704
    96    2  -0.1023   0.1591   0.9607  0.05573  -1.5517E-03 -7.6730E-04  1.7311E-03 -153.689
    97    2  -0.1430   0.1239   0.9728  0.05573  -1.7236E-03 -1.6777E-05  1.7236E-03 -179.442
    98    2  -0.1721   0.0786   0.9849  0.05573  -1.6689E-03  7.4974E-04  1.8296E-03  155.809
    99    2  -0.1872   0.0269   0.9970  0.05573  -1.4022E-03  1.4354E-03  2.0066E-03  134.332
   100    2  -0.1872  -0.0269   1.0091  0.05573  -9.6538E-04  1.9522E-03  2.1779E-03  116.313
   101    2  -0.1721  -0.0786   1.0212  0.05573  -4.2173E-04  2.2328E-03  2.2723E-03  100.696
   102    2  -0.1430  -0.1239   1.0333  0.05573   1.5293E-04  2.2389E-03  2.2441E-03   86.093
   103    2  -0.1023  -0.1591   1.0454  0.05573   6.8082E-04  1.9665E-03  2.0810E-03   70.904
   104    2  -0.0533  -0.1815   1.0575  0.05573   1.0929E-03  1.4468E-03  1.8132E-03   52.934
   105    2   0.0000  -0.1892   1.0696  0.05573   1.3379E-03  7.4271E-04  1.5302E-03   29.036
   106    2   0.0533  -0.1815   1.0817  0.05573   1.3894E-03 -5.9066E-05  1.3907E-03   -2.434
   107    2   0.1023  -0.1591   1.0938  0.05573   1.2488E-03 -8.5887E-04  1.5156E-03  -34.519
   108    2   0.1430  -0.1239   1.1059  0.05573   9.4448E-04 -1.5567E-03  1.8208E-03  -58.755
   109    2   0.1721  -0.0786   1.1180  0.05573   5.2766E-04 -2.0652E-03  2.1316E-03  -75.668
   110    2   0.1872  -0.0269   1.1301  0.05573   6.4524E-05 -2.3207E-03  2.3216E-03  -88.407
   111    2   0.1872   0.0269   1.1422  0.05573  -3.7366E-04 -2.2919E-03  2.3222E-03  -99.260
   112    2   0.1721   0.0786   1.1543  0.05573  -7.2124E-04 -1.9839E-03  2.1109E-03 -109.979
   113    2   0.1430   0.1239   1.1664  0.05573  -9.2808E-04 -1.4375E-03  1.7111E-03 -122.847
   114    2   0.1023   0.1591   1.1785  0.05573  -9.6695E-04 -7.2399E-04  1.2080E-03 -143.176
   115    2   0.0533   0.1815   1.1906  0.05573  -8.3719E-04  6.5176E-05  8.3972E-04  175.548
   116    2   0.0000   0.1892   1.2027  0.05573  -5.6443E-04  8.3050E-04  1.0041E-03  124.201
   117    2  -0.0533   0.1815   1.2148  0.05573  -1.9642E-04  1.4776E-03  1.4906E-03   97.572
   118    2  -0.1023   0.1591   1.2269  0.05573   2.0443E-04  1.9294E-03  1.9402E-03   83.952
   119    2  -0.1430   0.1239   1.2390  0.05573   5.7059E-04  2.1354E-03  2.2104E-03   75.040
   120    2  -0.1721   0.0786   1.2511  0.05573   8.3984E-04  2.0777E-03  2.2410E-03   67.991
   121    2  -0.1872   0.0269   1.2632  0.05573   9.6484E-04  1.7719E-03  2.0175E-03   61.430
   122    2  -0.1872  -0.0269   1.2753  0.05573   9.2068E-04  1.2644E-03  1.5641E-03   53.940
   123    2  -0.1721  -0.0786   1.2874  0.05573   7.0900E-04  6.2545E-04  9.4545E-04   41.417
   124    2  -0.1430  -0.1239   1.2995  0.05573   3.5829E-04 -6.0856E-05  3.6342E-04   -9.640
   125    2  -0.1023  -0.1591   1.3116  0.05573  -7.9929E-05 -7.0751E-04  7.1201E-04  -96.445
   126    2  -0.0533  -0.1815   1.3237  0.05573  -5.3830E-04 -1.2359E-03  1.3481E-03 -113.535
   127    2   0.0000  -0.1892   1.3358  0.05573  -9.4337E-04 -1.5855E-03  1.8449E-03 -120.752
   128    2   0.0533  -0.1815   1.3479  0.05573  -1.2263E-03 -1.7208E-03  2.1131E-03 -125.475
   129    2   0.1023  -0.1591   1.3600  0.05573  -1.3330E-03 -1.6348E-03  2.1094E-03 -129.193
   130    2   0.1430  -0.1239   1.3721  0.05573  -1.2315E-03 -1.3481E-03  1.8259E-03 -132.411
   131    2   0.1721  -0.0786   1.3842  0.05573  -9.1501E-04 -9.0349E-04  1.2859E-03 -135.363
   132    2   0.1872  -0.0269   1.3963  0.05573  -3.8117E-04 -3.4156E-04  5.1182E-04 -138.137



                                        - - - POWER BUDGET - - -

                                           INPUT POWER   = 2.4568E-03 WATTS
                                           RADIATED POWER= 2.4568E-03 WATTS
                                           STRUCTURE LOSS= 0.0000E+00 WATTS
                                           NETWORK LOSS  = 0.0000E+00 WATTS
                                           EFFICIENCY    = 100.00 PERCENT



                                                - - - RADIATION PATTERNS - - -

  - - ANGLES - -           - POWER GAINS -       - - - POLARIZATION - - -    - - - E(THETA) - - -    - - - E(PHI) - - -
  THETA     PHI        VERT.   HOR.    TOTAL      AXIAL     TILT   SENSE     MAGNITUDE    PHASE      MAGNITUDE    PHASE 
 DEGREES  DEGREES       DB      DB      DB        RATIO     DEG.              VOLTS/M    DEGREES      VOLTS/M    DEGREES
  -90.00     0.00      -2.22 -999.99   -2.22    0.00000     0.00  LINEAR    2.97184E-01   134.10    1.31163E-11   101.33
  -88.00     0.00      -2.35  -12.70   -1.96    0.15534   -14.64  LEFT      2.92901E-01   134.58    8.89598E-02   -78.48
  -86.00     0.00      -2.72   -6.90   -1.32    0.26736   -29.48  LEFT      2.80574E-01   136.02    1.73501E-01   -77.89
  -84.00     0.00      -3.33   -3.74   -0.52    0.31779   -43.33  LEFT      2.61680E-01   138.43    2.49524E-01   -76.88
  -82.00     0.00      -4.14   -1.76    0.22    0.32138   -54.60  LEFT      2.38387E-01   141.78    3.13546E-01   -75.42
  -80.00     0.00      -5.11   -0.49    0.80    0.30260   -62.91  LEFT      2.13135E-01   145.94    3.62951E-01   -73.47
  -78.00     0.00      -6.19    0.28    1.16    0.27657   -68.73  LEFT      1.88132E-01   150.59    3.96188E-01   -70.94
  -76.00     0.00      -7.34    0.63    1.28    0.24868   -72.56  LEFT      1.64906E-01   155.09    4.12888E-01   -67.74
  -74.00     0.00      -8.51    0.66    1.15    0.21859   -74.79  LEFT      1.44125E-01   158.46    4.13905E-01   -63.74
  -72.00     0.00      -9.68    0.39    0.79    0.18251   -75.65  LEFT      1.25942E-01   159.44    4.01275E-01   -58.75
  -70.00     0.00     -10.79   -0.13    0.23    0.13398   -75.38  LEFT      1.10798E-01   156.63    3.78085E-01   -52.56
  -68.00     0.00     -11.66   -0.84   -0.50    0.06460   -74.33  LEFT      1.00251E-01   149.09    3.48234E-01   -44.92
  -66.00     0.00     -11.97   -1.69   -1.30    0.03382   -73.07  RIGHT     9.67915E-02   137.45    3.16036E-01   -35.62
  -64.00     0.00     -11.53   -2.57   -2.05    0.16557   -72.47  RIGHT     1.01727E-01   124.70    2.85569E-01   -24.65
  -62.00     0.00     -10.61   -3.39   -2.64    0.32673   -73.77  RIGHT     1.13151E-01   113.96    2.59722E-01   -12.31
  -60.00     0.00      -9.61   -4.11   -3.03    0.49829   -79.26  RIGHT     1.26972E-01   106.15    2.39200E-01     0.70
  -58.00     0.00      -8.82   -4.75   -3.31    0.62411    87.00  RIGHT     1.39073E-01   100.61    2.22169E-01    13.54
  -56.00     0.00      -8.38   -5.45   -3.66    0.61522    68.09  RIGHT     1.46289E-01    96.37    2.05036E-01    25.65
  -54.00     0.00      -8.36   -6.39   -4.25    0.50315    55.98  RIGHT     1.46584E-01    92.50    1.83889E-01    37.04
  -52.00     0.00      -8.82   -7.83   -5.29    0.35648    49.18  RIGHT     1.39109E-01    88.01    1.55766E-01    48.47
  -50.00     0.00      -9.78  -10.13   -6.94    0.17093    43.80  RIGHT     1.24424E-01    81.49    1.19587E-01    62.07
  -48.00     0.00     -11.24  -13.79   -9.32    0.12266    36.44  LEFT      1.05277E-01    70.43    7.84866E-02    85.03
  -46.00     0.00     -12.72  -16.84  -11.30    0.62181     0.36  LEFT      8.87743E-02    50.73    5.52029E-02   140.37
  -44.00     0.00     -12.76  -12.34   -9.53    0.07607   -46.41  LEFT      8.83488E-02    22.22    9.27403E-02  -166.49
  -42.00     0.00     -10.66   -7.49   -5.78    0.30255   -57.41  RIGHT     1.12544E-01    -2.41    1.62095E-01  -146.14
  -40.00     0.00      -7.90   -3.99   -2.51    0.48759   -66.64  RIGHT     1.54542E-01   -16.38    2.42458E-01  -136.02
  -38.00     0.00      -5.42   -1.36    0.08    0.57454   -74.95  RIGHT     2.05756E-01   -23.20    3.28202E-01  -129.50
  -36.00     0.00      -3.34    0.71    2.15    0.61256   -81.50  RIGHT     2.61409E-01   -26.17    4.16325E-01  -124.65
  -34.00     0.00      -1.61    2.38    3.84    0.62892   -86.09  RIGHT     3.18900E-01   -27.01    5.04554E-01  -120.76
  -32.00     0.00      -0.16    3.75    5.23    0.63712   -89.05  RIGHT     3.76662E-01   -26.58    5.91026E-01  -117.47
  -30.00     0.00       1.06    4.89    6.40    0.64312    89.16  RIGHT     4.33699E-01   -25.36    6.74225E-01  -114.60
  -28.00     0.00       2.11    5.85    7.38    0.64929    88.21  RIGHT     4.89364E-01   -23.63    7.52970E-01  -112.04
  -26.00     0.00       3.02    6.66    8.22    0.65648    87.85  RIGHT     5.43230E-01   -21.59    8.26398E-01  -109.73
  -24.00     0.00       3.81    7.34    8.94    0.66480    87.92  RIGHT     5.94998E-01   -19.38    8.93934E-01  -107.64
  -22.00     0.00       4.50    7.92    9.55    0.67409    88.30  RIGHT     6.44424E-01   -17.10    9.55256E-01  -105.72
  -20.00     0.00       5.11    8.41   10.07    0.68404    88.89  RIGHT     6.91266E-01   -14.83    1.01025E+00  -103.97
  -18.00     0.00       5.65    8.82   10.52    0.69429    89.64  RIGHT     7.35258E-01   -12.65    1.05897E+00  -102.38
  -16.00     0.00       6.12    9.16   10.91    0.70448   -89.50  RIGHT     7.76096E-01   -10.59    1.10159E+00  -100.95
  -14.00     0.00       6.52    9.44   11.23    0.71426   -88.60  RIGHT     8.13439E-01    -8.70    1.13836E+00   -99.67
  -12.00     0.00       6.87    9.68   11.51    0.72331   -87.68  RIGHT     8.46922E-01    -7.01    1.16956E+00   -98.54
  -10.00     0.00       7.17    9.87   11.74    0.73137   -86.79  RIGHT     8.76176E-01    -5.54    1.19550E+00   -97.57
   -8.00     0.00       7.41   10.02   11.92    0.73820   -85.98  RIGHT     9.00843E-01    -4.30    1.21646E+00   -96.77
   -6.00     0.00       7.60   10.13   12.06    0.74365   -85.28  RIGHT     9.20601E-01    -3.30    1.23270E+00   -96.12
   -4.00     0.00       7.74   10.22   12.16    0.74759   -84.72  RIGHT     9.35176E-01    -2.55    1.24442E+00   -95.65
   -2.00     0.00       7.82   10.27   12.22    0.74995   -84.32  RIGHT     9.44357E-01    -2.06    1.25177E+00   -95.34
    0.00     0.00       7.85   10.29   12.25    0.75069   -84.12  RIGHT     9.48007E-01    -1.82    1.25485E+00   -95.21
    2.00     0.00       7.84   10.28   12.24    0.74983   -84.11  RIGHT     9.46072E-01    -1.83    1.25369E+00   -95.24
    4.00     0.00       7.77   10.24   12.19    0.74739   -84.30  RIGHT     9.38586E-01    -2.11    1.24824E+00   -95.45
    6.00     0.00       7.65   10.17   12.10    0.74345   -84.68  RIGHT     9.25670E-01    -2.64    1.23840E+00   -95.82
    8.00     0.00       7.48   10.07   11.98    0.73813   -85.22  RIGHT     9.07540E-01    -3.42    1.22403E+00   -96.35
   10.00     0.00       7.25    9.94   11.81    0.73160   -85.91  RIGHT     8.84494E-01    -4.45    1.20490E+00   -97.04
   12.00     0.00       6.98    9.76   11.60    0.72407   -86.70  RIGHT     8.56910E-01    -5.73    1.18077E+00   -97.89
   14.00     0.00       6.65    9.54   11.34    0.71583   -87.58  RIGHT     8.25230E-01    -7.23    1.15135E+00   -98.88
   16.00     0.00       6.27    9.27   11.04    0.70724   -88.49  RIGHT     7.89941E-01    -8.95    1.11635E+00  -100.02
   18.00     0.00       5.84    8.95   10.68    0.69874   -89.39  RIGHT     7.51546E-01   -10.84    1.07548E+00  -101.29
   20.00     0.00       5.35    8.56   10.26    0.69085    89.75  RIGHT     7.10540E-01   -12.88    1.02849E+00  -102.69
   22.00     0.00       4.81    8.10    9.77    0.68417    88.99  RIGHT     6.67375E-01   -14.99    9.75199E-01  -104.21
   24.00     0.00       4.20    7.55    9.20    0.67942    88.42  RIGHT     6.22437E-01   -17.12    9.15540E-01  -105.87
   26.00     0.00       3.53    6.90    8.54    0.67739    88.11  RIGHT     5.76034E-01   -19.16    8.49585E-01  -107.65
   28.00     0.00       2.78    6.13    7.78    0.67898    88.23  RIGHT     5.28409E-01   -20.98    7.77601E-01  -109.58
   30.00     0.00       1.94    5.22    6.89    0.68514    89.00  RIGHT     4.79778E-01   -22.43    7.00089E-01  -111.66
   32.00     0.00       1.00    4.13    5.85    0.69654   -89.16  RIGHT     4.30406E-01   -23.30    6.17819E-01  -113.92
   34.00     0.00      -0.07    2.83    4.63    0.71263   -85.50  RIGHT     3.80720E-01   -23.32    5.31852E-01  -116.42
   36.00     0.00      -1.27    1.26    3.18    0.72811   -78.67  RIGHT     3.31457E-01   -22.13    4.43558E-01  -119.22
   38.00     0.00      -2.62   -0.69    1.46    0.72339   -67.19  RIGHT     2.83858E-01   -19.21    3.54599E-01  -122.46
   40.00     0.00      -4.08   -3.16   -0.58    0.65802   -52.79  RIGHT     2.39892E-01   -13.88    2.66905E-01  -126.42
   42.00     0.00      -5.56   -6.45   -2.97    0.50067   -40.07  RIGHT     2.02442E-01    -5.34    1.82649E-01  -131.74
   44.00     0.00      -6.82  -11.31   -5.50    0.25124   -28.67  RIGHT     1.75105E-01     6.85    1.04378E-01  -140.65
   46.00     0.00      -7.56  -20.17   -7.33    0.04357   -12.96  LEFT      1.60765E-01    21.74    3.76404E-02  -169.56
   48.00     0.00      -7.66  -19.54   -7.38    0.16314    11.06  LEFT      1.58979E-01    36.75    4.04517E-02    78.43
   50.00     0.00      -7.32  -12.69   -6.21    0.02778    28.28  LEFT      1.65258E-01    49.51    8.90216E-02    53.32
   52.00     0.00      -6.88   -9.39   -4.95    0.14627    36.47  RIGHT     1.73772E-01    59.45    1.30176E-01    42.08
   54.00     0.00      -6.58   -7.49   -4.00    0.31202    41.35  RIGHT     1.79978E-01    67.18    1.62037E-01    32.31
   56.00     0.00      -6.51   -6.28   -3.38    0.48382    46.27  RIGHT     1.81312E-01    73.63    1.86363E-01    21.96
   58.00     0.00      -6.72   -5.38   -2.99    0.66691    56.77  RIGHT     1.76980E-01    79.60    2.06600E-01    10.49
   60.00     0.00      -7.19   -4.56   -2.67    0.73618    86.41  RIGHT     1.67652E-01    85.84    2.27152E-01    -1.93
   62.00     0.00      -7.86   -3.65   -2.26    0.55868   -74.57  RIGHT     1.55210E-01    92.99    2.52021E-01   -14.54
   64.00     0.00      -8.61   -2.64   -1.66    0.35756   -70.21  RIGHT     1.42443E-01   101.49    2.83155E-01   -26.35
   66.00     0.00      -9.24   -1.59   -0.90    0.19485   -69.85  RIGHT     1.32483E-01   111.32    3.19645E-01   -36.63
   68.00     0.00      -9.55   -0.60   -0.08    0.07370   -70.75  RIGHT     1.27775E-01   121.49    3.58215E-01   -45.12
   70.00     0.00      -9.47    0.24    0.68    0.01142   -71.89  LEFT      1.29014E-01   130.28    3.94338E-01   -51.94
   72.00     0.00      -9.07    0.85    1.27    0.06825   -72.67  LEFT      1.35131E-01   136.22    4.23231E-01   -57.34
   74.00     0.00      -8.49    1.20    1.64    0.10462   -72.72  LEFT      1.44498E-01   138.86    4.40525E-01   -61.59
   76.00     0.00      -7.82    1.24    1.75    0.12718   -71.79  LEFT      1.56003E-01   138.60    4.42700E-01   -64.94
   78.00     0.00      -7.11    0.93    1.57    0.14099   -69.67  LEFT      1.69196E-01   136.27    4.27361E-01   -67.55
   80.00     0.00      -6.40    0.21    1.07    0.14954   -66.08  LEFT      1.83773E-01   132.84    3.93424E-01   -69.58
   82.00     0.00      -5.70   -1.02    0.25    0.15460   -60.54  LEFT      1.99024E-01   129.17    3.41189E-01   -71.13
   84.00     0.00      -5.09   -2.98   -0.90    0.15492   -52.23  LEFT      2.13627E-01   125.89    2.72325E-01   -72.26
   86.00     0.00      -4.61   -6.12   -2.29    0.14200   -39.83  LEFT      2.25853E-01   123.38    1.89748E-01   -73.04
   88.00     0.00      -4.30  -11.91   -3.60    0.09453   -22.08  LEFT      2.34008E-01   121.82    9.74106E-02   -73.49
   90.00     0.00      -4.19 -999.99   -4.19    0.00000     0.00  LINEAR    2.36874E-01   121.29    1.43675E-11   106.36






 ***** DATA CARD NO.  6   RP   0    91     1  1000 -9.00000E+01  4.50000E+01  2.00000E+00  1.00000E+00  0.00000E+00  0.00000E+00



                                                - - - RADIATION PATTERNS - - -

  - - ANGLES - -           - POWER GAINS -       - - - POLARIZATION - - -    - - - E(THETA) - - -    - - - E(PHI) - - -
  THETA     PHI        VERT.   HOR.    TOTAL      AXIAL     TILT   SENSE     MAGNITUDE    PHASE      MAGNITUDE    PHASE 
 DEGREES  DEGREES       DB      DB      DB        RATIO     DEG.              VOLTS/M    DEGREES      VOLTS/M    DEGREES
  -90.00    45.00      -2.67 -999.99   -2.67    0.00000     0.00  LINEAR    2.82348E-01   119.38    8.89906E-12    95.00
  -88.00    45.00      -2.90  -16.04   -2.69    0.08774   -11.43  LEFT      2.74904E-01   119.69    6.05760E-02   -84.79
  -86.00    45.00      -3.61  -10.14   -2.74    0.16625   -23.86  LEFT      2.53395E-01   120.65    1.19430E-01   -84.15
  -84.00    45.00      -4.83   -6.83   -2.70    0.21934   -37.79  LEFT      2.20179E-01   122.34    1.74916E-01   -83.11
  -82.00    45.00      -6.63   -4.62   -2.50    0.22925   -52.34  LEFT      1.78827E-01   124.92    2.25532E-01   -81.66
  -80.00    45.00      -9.16   -3.06   -2.10    0.19678   -65.47  LEFT      1.33622E-01   128.63    2.69973E-01   -79.83
  -78.00    45.00     -12.70   -1.93   -1.59    0.14248   -75.84  LEFT      8.89310E-02   133.86    3.07160E-01   -77.65
  -76.00    45.00     -17.97   -1.15   -1.06    0.08449   -83.33  LEFT      4.84865E-02   141.28    3.36265E-01   -75.15
  -74.00    45.00     -28.39   -0.64   -0.63    0.02904   -88.34  LEFT      1.46149E-02   152.84    3.56704E-01   -72.35
  -72.00    45.00     -29.67   -0.36   -0.36    0.02572    88.70  RIGHT     1.26132E-02   -20.60    3.68139E-01   -69.28
  -70.00    45.00     -20.66   -0.31   -0.27    0.08504    87.45  RIGHT     3.55632E-02    -3.40    3.70467E-01   -65.97
  -68.00    45.00     -16.34   -0.46   -0.35    0.15521    87.61  RIGHT     5.84753E-02    12.84    3.63810E-01   -62.46
  -66.00    45.00     -13.12   -0.84   -0.59    0.24252    88.96  RIGHT     8.47549E-02    27.21    3.48505E-01   -58.75
  -64.00    45.00     -10.47   -1.44   -0.93    0.35292   -88.57  RIGHT     1.15014E-01    38.66    3.25091E-01   -54.89
  -62.00    45.00      -8.33   -2.31   -1.34    0.49169   -84.62  RIGHT     1.47172E-01    47.32    2.94287E-01   -50.88
  -60.00    45.00      -6.69   -3.49   -1.79    0.66076   -77.09  RIGHT     1.77679E-01    53.76    2.56955E-01   -46.75
  -58.00    45.00      -5.55   -5.07   -2.29    0.81630   -52.96  RIGHT     2.02596E-01    58.56    2.14052E-01   -42.55
  -56.00    45.00      -4.90   -7.25   -2.91    0.72009   -16.81  RIGHT     2.18302E-01    62.12    1.66576E-01   -38.37
  -54.00    45.00      -4.76  -10.43   -3.72    0.50925    -6.35  RIGHT     2.21931E-01    64.64    1.15502E-01   -34.45
  -52.00    45.00      -5.17  -15.87   -4.82    0.28840    -2.55  RIGHT     2.11636E-01    66.16    6.17523E-02   -31.87
  -50.00    45.00      -6.26  -33.93   -6.25    0.03104    -1.56  RIGHT     1.86742E-01    66.41    7.72207E-03   -64.89
  -48.00    45.00      -8.28  -17.38   -7.78    0.33715    -5.62  LEFT      1.47915E-01    64.40    5.19233E-02   168.77
  -46.00    45.00     -11.86  -10.84   -8.31    0.63295   -52.90  LEFT      9.79988E-02    56.26    1.10173E-01   170.75
  -44.00    45.00     -17.60   -7.11   -6.73    0.11875   -74.65  LEFT      5.06145E-02    20.10    1.69364E-01   174.83
  -42.00    45.00     -14.57   -4.47   -4.07    0.23405   -78.25  RIGHT     7.17179E-02   -51.82    2.29306E-01   179.34
  -40.00    45.00      -8.49   -2.44   -1.47    0.47244   -80.80  RIGHT     1.44379E-01   -71.53    2.89920E-01  -176.09
  -38.00    45.00      -4.54   -0.77    0.75    0.64207   -84.61  RIGHT     2.27462E-01   -76.68    3.51134E-01  -171.58
  -36.00    45.00      -1.76    0.63    2.61    0.75899    88.46  RIGHT     3.13458E-01   -78.09    4.12821E-01  -167.23
  -34.00    45.00       0.34    1.85    4.17    0.82351    76.83  RIGHT     3.99106E-01   -78.04    4.74764E-01  -163.08
  -32.00    45.00       1.98    2.91    5.48    0.83723    63.66  RIGHT     4.82183E-01   -77.26    5.36645E-01  -159.18
  -30.00    45.00       3.30    3.85    6.59    0.82227    54.63  RIGHT     5.61079E-01   -76.08    5.98047E-01  -155.55
  -28.00    45.00       4.37    4.69    7.54    0.80083    49.84  RIGHT     6.34688E-01   -74.64    6.58477E-01  -152.19
  -26.00    45.00       5.25    5.43    8.35    0.78168    47.52  RIGHT     7.02334E-01   -73.04    7.17388E-01  -149.12
  -24.00    45.00       5.98    6.10    9.05    0.76684    46.51  RIGHT     7.63703E-01   -71.34    7.74219E-01  -146.32
  -22.00    45.00       6.58    6.68    9.64    0.75625    46.23  RIGHT     8.18760E-01   -69.59    8.28416E-01  -143.80
  -20.00    45.00       7.08    7.20   10.15    0.74929    46.38  RIGHT     8.67669E-01   -67.83    8.79459E-01  -141.53
  -18.00    45.00       7.51    7.66   10.59    0.74524    46.76  RIGHT     9.10715E-01   -66.10    9.26881E-01  -139.52
  -16.00    45.00       7.86    8.06   10.97    0.74342    47.29  RIGHT     9.48236E-01   -64.44    9.70274E-01  -137.75
  -14.00    45.00       8.15    8.40   11.28    0.74321    47.87  RIGHT     9.80574E-01   -62.89    1.00930E+00  -136.21
  -12.00    45.00       8.39    8.69   11.55    0.74409    48.47  RIGHT     1.00803E+00   -61.46    1.04368E+00  -134.88
  -10.00    45.00       8.58    8.93   11.77    0.74558    49.05  RIGHT     1.03087E+00   -60.19    1.07320E+00  -133.76
   -8.00    45.00       8.74    9.13   11.95    0.74728    49.58  RIGHT     1.04926E+00   -59.11    1.09769E+00  -132.85
   -6.00    45.00       8.85    9.28   12.08    0.74888    50.04  RIGHT     1.06332E+00   -58.22    1.11702E+00  -132.12
   -4.00    45.00       8.93    9.39   12.18    0.75011    50.41  RIGHT     1.07312E+00   -57.56    1.13110E+00  -131.58
   -2.00    45.00       8.98    9.45   12.23    0.75076    50.70  RIGHT     1.07868E+00   -57.12    1.13987E+00  -131.22
    0.00    45.00       8.99    9.48   12.25    0.75069    50.88  RIGHT     1.07997E+00   -56.92    1.14326E+00  -131.03
    2.00    45.00       8.96    9.47   12.23    0.74983    50.97  RIGHT     1.07694E+00   -56.95    1.14124E+00  -131.02
    4.00    45.00       8.90    9.41   12.17    0.74816    50.96  RIGHT     1.06953E+00   -57.23    1.13376E+00  -131.17
    6.00    45.00       8.80    9.31   12.07    0.74572    50.86  RIGHT     1.05767E+00   -57.73    1.12082E+00  -131.49
    8.00    45.00       8.67    9.16   11.93    0.74262    50.68  RIGHT     1.04127E+00   -58.46    1.10239E+00  -131.97
   10.00    45.00       8.49    8.97   11.75    0.73903    50.45  RIGHT     1.02024E+00   -59.40    1.07849E+00  -132.62
   12.00    45.00       8.27    8.73   11.52    0.73521    50.17  RIGHT     9.94466E-01   -60.53    1.04918E+00  -133.44
   14.00    45.00       8.00    8.44   11.24    0.73148    49.87  RIGHT     9.63847E-01   -61.83    1.01455E+00  -134.44
   16.00    45.00       7.67    8.10   10.90    0.72827    49.58  RIGHT     9.28266E-01   -63.27    9.74745E-01  -135.62
   18.00    45.00       7.28    7.69   10.50    0.72608    49.33  RIGHT     8.87608E-01   -64.83    9.30013E-01  -136.99
   20.00    45.00       6.82    7.21   10.03    0.72557    49.18  RIGHT     8.41781E-01   -66.46    8.80683E-01  -138.57
   22.00    45.00       6.28    6.67    9.49    0.72752    49.21  RIGHT     7.90729E-01   -68.12    8.27198E-01  -140.37
   24.00    45.00       5.64    6.05    8.86    0.73289    49.53  RIGHT     7.34471E-01   -69.74    7.70126E-01  -142.42
   26.00    45.00       4.88    5.34    8.13    0.74279    50.34  RIGHT     6.73145E-01   -71.27    7.10166E-01  -144.75
   28.00    45.00       3.98    4.55    7.29    0.75839    52.02  RIGHT     6.07058E-01   -72.60    6.48146E-01  -147.40
   30.00    45.00       2.91    3.66    6.31    0.78022    55.34  RIGHT     5.36755E-01   -73.60    5.85006E-01  -150.40
   32.00    45.00       1.63    2.67    5.19    0.80546    61.94  RIGHT     4.63096E-01   -74.05    5.21769E-01  -153.79
   34.00    45.00       0.08    1.56    3.90    0.81831    74.35  RIGHT     3.87377E-01   -73.62    4.59488E-01  -157.63
   36.00    45.00      -1.81    0.34    2.41    0.78036   -89.41  RIGHT     3.11516E-01   -71.66    3.99174E-01  -161.95
   38.00    45.00      -4.13   -1.01    0.71    0.66977   -77.46  RIGHT     2.38505E-01   -66.88    3.41692E-01  -166.77
   40.00    45.00      -6.89   -2.51   -1.16    0.49839   -70.35  RIGHT     1.73637E-01   -56.53    2.87647E-01  -172.06
   42.00    45.00      -9.56   -4.18   -3.07    0.27658   -64.99  RIGHT     1.27605E-01   -35.72    2.37257E-01  -177.71
   44.00    45.00     -10.36   -6.10   -4.71    0.01366   -58.54  RIGHT     1.16451E-01    -5.26    1.90266E-01   176.49
   46.00    45.00      -8.84   -8.40   -5.60    0.24661   -46.65  LEFT      1.38676E-01    18.71    1.45937E-01   170.96
   48.00    45.00      -6.93  -11.41   -5.61    0.34552   -26.46  LEFT      1.72787E-01    31.08    1.03180E-01   166.55
   50.00    45.00      -5.47  -15.98   -5.10    0.22267   -11.24  LEFT      2.04487E-01    36.69    6.09591E-02   165.89
   52.00    45.00      -4.53  -25.14   -4.49    0.04315    -4.73  LEFT      2.27784E-01    38.82    2.12446E-02  -168.94
   54.00    45.00      -4.07  -20.81   -3.98    0.14028    -2.22  RIGHT     2.40326E-01    39.01    3.49733E-02   -66.11
   56.00    45.00      -4.02  -13.45   -3.55    0.33681    -1.47  RIGHT     2.41575E-01    37.96    8.15983E-02   -55.90
   58.00    45.00      -4.37   -9.29   -3.15    0.56694    -1.63  RIGHT     2.32185E-01    36.02    1.31784E-01   -55.93
   60.00    45.00      -5.09   -6.42   -2.69    0.85724    -3.09  RIGHT     2.13693E-01    33.39    1.83352E-01   -57.56
   62.00    45.00      -6.19   -4.28   -2.12    0.80243    89.23  RIGHT     1.88257E-01    30.24    2.34589E-01   -59.42
   64.00    45.00      -7.69   -2.63   -1.45    0.55789    88.34  RIGHT     1.58352E-01    26.81    2.83495E-01   -61.14
   66.00    45.00      -9.64   -1.37   -0.77    0.38456    88.30  RIGHT     1.26439E-01    23.61    3.27837E-01   -62.64
   68.00    45.00     -12.15   -0.43   -0.15    0.25852    88.84  RIGHT     9.47245E-02    21.95    3.65300E-01   -63.88
   70.00    45.00     -15.37    0.22    0.34    0.16619   -89.97  RIGHT     6.54203E-02    25.26    3.93642E-01   -64.89
   72.00    45.00     -18.97    0.59    0.64    0.09936   -88.03  RIGHT     4.31909E-02    43.19    4.10861E-01   -65.68
   74.00    45.00     -19.40    0.69    0.73    0.05287   -85.22  RIGHT     4.11116E-02    81.16    4.15344E-01   -66.30
   76.00    45.00     -15.80    0.49    0.59    0.02345   -81.39  RIGHT     6.22198E-02   104.22    4.05995E-01   -66.77
   78.00    45.00     -12.33   -0.03    0.22    0.00883   -76.37  RIGHT     9.27686E-02   110.67    3.82343E-01   -67.12
   80.00    45.00      -9.67   -0.94   -0.39    0.00701   -69.91  RIGHT     1.26088E-01   111.38    3.44606E-01   -67.37
   82.00    45.00      -7.66   -2.32   -1.21    0.01518   -61.60  RIGHT     1.58874E-01   110.37    2.93718E-01   -67.55
   84.00    45.00      -6.19   -4.40   -2.19    0.02821   -50.86  RIGHT     1.88280E-01   109.02    2.31310E-01   -67.67
   86.00    45.00      -5.17   -7.62   -3.21    0.03669   -37.01  RIGHT     2.11622E-01   107.88    1.59641E-01   -67.75
   88.00    45.00      -4.58  -13.46   -4.05    0.02815   -19.72  RIGHT     2.26639E-01   107.14    8.14895E-02   -67.79
   90.00    45.00      -4.38 -999.99   -4.38    0.00000     0.00  LINEAR    2.31822E-01   106.89    1.19968E-11   112.19






 ***** DATA CARD NO.  7   RP   0    91     1  1000 -9.00000E+01  9.00000E+01  2.00000E+00  1.00000E+00  0.00000E+00  0.00000E+00



                                                - - - RADIATION PATTERNS - - -

  - - ANGLES - -           - POWER GAINS -       - - - POLARIZATION - - -    - - - E(THETA) - - -    - - - E(PHI) - - -
  THETA     PHI        VERT.   HOR.    TOTAL      AXIAL     TILT   SENSE     MAGNITUDE    PHASE      MAGNITUDE    PHASE 
 DEGREES  DEGREES       DB      DB      DB        RATIO     DEG.              VOLTS/M    DEGREES      VOLTS/M    DEGREES
  -90.00    90.00     -10.17 -999.99  -10.17    0.00000     0.00  LINEAR    1.19008E-01    94.28    3.44195E-12   -34.16
  -88.00    90.00     -10.56  -24.45  -10.38    0.15920     7.09  LEFT      1.13813E-01    93.44    2.29884E-02   146.57
  -86.00    90.00     -11.77  -19.06  -11.03    0.34846    14.52  LEFT      9.89612E-02    90.39    4.27863E-02   148.94
  -84.00    90.00     -13.96  -16.59  -12.07    0.62861    23.69  LEFT      7.68945E-02    82.99    5.68258E-02   153.50
  -82.00    90.00     -17.13  -15.57  -13.27    0.80351   -72.87  LEFT      5.33902E-02    64.39    6.39127E-02   161.46
  -80.00    90.00     -18.88  -15.37  -13.77    0.23296   -57.66  LEFT      4.36433E-02    23.58    6.53912E-02   174.99
  -78.00    90.00     -16.00  -15.17  -12.55    0.24788   -48.08  RIGHT     6.08490E-02   -11.82    6.69201E-02  -163.84
  -76.00    90.00     -12.63  -13.84  -10.18    0.64577   -35.11  RIGHT     8.96901E-02   -25.40    7.79663E-02  -138.42
  -74.00    90.00     -10.20  -11.38   -7.74    0.87071     5.65  RIGHT     1.18563E-01   -29.24    1.03515E-01  -117.68
  -72.00    90.00      -8.55   -8.76   -5.64    0.77620    42.21  RIGHT     1.43416E-01   -28.68    1.39996E-01  -104.38
  -70.00    90.00      -7.45   -6.51   -3.94    0.69782    54.03  RIGHT     1.62856E-01   -25.54    1.81317E-01   -96.28
  -68.00    90.00      -6.73   -4.75   -2.62    0.66057    62.37  RIGHT     1.76851E-01   -20.57    2.22022E-01   -91.26
  -66.00    90.00      -6.28   -3.47   -1.64    0.64737    69.99  RIGHT     1.86187E-01   -14.19    2.57526E-01   -88.10
  -64.00    90.00      -6.02   -2.61   -0.98    0.64660    77.70  RIGHT     1.91959E-01    -6.78    2.84088E-01   -86.17
  -62.00    90.00      -5.88   -2.17   -0.63    0.64924    85.94  RIGHT     1.95009E-01     1.24    2.98903E-01   -85.16
  -60.00    90.00      -5.86   -2.13   -0.60    0.64649   -85.12  RIGHT     1.95471E-01     9.39    3.00212E-01   -84.97
  -58.00    90.00      -5.99   -2.51   -0.90    0.62897   -75.70  RIGHT     1.92587E-01    17.27    2.87399E-01   -85.68
  -56.00    90.00      -6.34   -3.35   -1.58    0.58718   -66.48  RIGHT     1.84874E-01    24.61    2.61064E-01   -87.60
  -54.00    90.00      -7.05   -4.71   -2.71    0.51160   -58.34  RIGHT     1.70527E-01    31.30    2.23189E-01   -91.51
  -52.00    90.00      -8.29   -6.69   -4.40    0.38850   -52.15  RIGHT     1.47844E-01    37.38    1.77747E-01   -99.26
  -50.00    90.00     -10.43   -9.20   -6.76    0.18884   -49.33  RIGHT     1.15565E-01    43.10    1.33099E-01  -115.29
  -48.00    90.00     -14.41  -10.96   -9.34    0.12445   -56.45  LEFT      7.30722E-02    49.30    1.08682E-01  -146.05
  -46.00    90.00     -25.29   -9.55   -9.43    0.14816   -86.07  LEFT      2.08841E-02    65.46    1.27875E-01   179.76
  -44.00    90.00     -19.02   -6.58   -6.34    0.21084    83.60  RIGHT     4.29523E-02  -136.33    1.79887E-01   160.34
  -42.00    90.00     -10.57   -3.94   -3.09    0.45622    84.44  RIGHT     1.13626E-01  -128.10    2.43821E-01   151.40
  -40.00    90.00      -6.04   -1.85   -0.45    0.61703    88.57  RIGHT     1.91430E-01  -124.01    3.10028E-01   147.42
  -38.00    90.00      -2.91   -0.22    1.65    0.72920   -85.03  RIGHT     2.74405E-01  -120.86    3.74417E-01   145.97
  -36.00    90.00      -0.54    1.09    3.36    0.80727   -75.78  RIGHT     3.60636E-01  -118.16    4.35053E-01   145.98
  -34.00    90.00       1.35    2.14    4.77    0.85403   -62.79  RIGHT     4.48241E-01  -115.73    4.91086E-01   146.93
  -32.00    90.00       2.89    3.00    5.96    0.86925   -47.63  RIGHT     5.35465E-01  -113.51    5.42331E-01   148.52
  -30.00    90.00       4.18    3.72    6.96    0.86136   -34.64  RIGHT     6.20747E-01  -111.45    5.89031E-01   150.58
  -28.00    90.00       5.25    4.33    7.83    0.84394   -25.40  RIGHT     7.02761E-01  -109.52    6.31686E-01   152.96
  -26.00    90.00       6.16    4.85    8.57    0.82520   -18.87  RIGHT     7.80441E-01  -107.71    6.70898E-01   155.54
  -24.00    90.00       6.94    5.31    9.21    0.80826   -14.00  RIGHT     8.52978E-01  -106.01    7.07254E-01   158.24
  -22.00    90.00       7.59    5.72    9.76    0.79401   -10.16  RIGHT     9.19801E-01  -104.42    7.41233E-01   160.96
  -20.00    90.00       8.15    6.08   10.25    0.78252    -7.01  RIGHT     9.80550E-01  -102.94    7.73147E-01   163.62
  -18.00    90.00       8.62    6.41   10.66    0.77352    -4.38  RIGHT     1.03504E+00  -101.57    8.03125E-01   166.16
  -16.00    90.00       9.01    6.71   11.02    0.76667    -2.14  RIGHT     1.08322E+00  -100.32    8.31118E-01   168.53
  -14.00    90.00       9.34    6.98   11.33    0.76161    -0.24  RIGHT     1.12515E+00   -99.19    8.56931E-01   170.68
  -12.00    90.00       9.61    7.21   11.59    0.75798     1.38  RIGHT     1.16094E+00   -98.19    8.80263E-01   172.58
  -10.00    90.00       9.83    7.41   11.80    0.75546     2.72  RIGHT     1.19074E+00   -97.33    9.00753E-01   174.22
   -8.00    90.00      10.01    7.57   11.97    0.75376     3.81  RIGHT     1.21471E+00   -96.60    9.18017E-01   175.57
   -6.00    90.00      10.14    7.70   12.10    0.75263     4.66  RIGHT     1.23300E+00   -96.02    9.31682E-01   176.65
   -4.00    90.00      10.23    7.79   12.19    0.75186     5.29  RIGHT     1.24574E+00   -95.60    9.41413E-01   177.44
   -2.00    90.00      10.28    7.84   12.24    0.75126     5.69  RIGHT     1.25301E+00   -95.32    9.46928E-01   177.95
    0.00    90.00      10.29    7.85   12.25    0.75069     5.88  RIGHT     1.25485E+00   -95.21    9.48007E-01   178.18
    2.00    90.00      10.26    7.82   12.22    0.75007     5.86  RIGHT     1.25127E+00   -95.25    9.44501E-01   178.14
    4.00    90.00      10.20    7.75   12.16    0.74934     5.64  RIGHT     1.24221E+00   -95.44    9.36332E-01   177.83
    6.00    90.00      10.10    7.63   12.05    0.74847     5.24  RIGHT     1.22757E+00   -95.79    9.23493E-01   177.26
    8.00    90.00       9.95    7.46   11.89    0.74749     4.65  RIGHT     1.20723E+00   -96.30    9.06049E-01   176.44
   10.00    90.00       9.76    7.25   11.70    0.74648     3.89  RIGHT     1.18103E+00   -96.94    8.84131E-01   175.36
   12.00    90.00       9.52    6.99   11.45    0.74557     2.97  RIGHT     1.14880E+00   -97.73    8.57939E-01   174.03
   14.00    90.00       9.23    6.68   11.15    0.74494     1.89  RIGHT     1.11038E+00   -98.66    8.27733E-01   172.47
   16.00    90.00       8.87    6.31   10.79    0.74488     0.66  RIGHT     1.06563E+00   -99.71    7.93831E-01   170.69
   18.00    90.00       8.44    5.90   10.36    0.74573    -0.72  RIGHT     1.01447E+00  -100.88    7.56602E-01   168.69
   20.00    90.00       7.94    5.42    9.87    0.74799    -2.26  RIGHT     9.56929E-01  -102.17    7.16454E-01   166.50
   22.00    90.00       7.34    4.89    9.29    0.75227    -3.99  RIGHT     8.93127E-01  -103.56    6.73830E-01   164.14
   24.00    90.00       6.63    4.29    8.63    0.75944    -5.95  RIGHT     8.23359E-01  -105.06    6.29189E-01   161.65
   26.00    90.00       5.80    3.63    7.86    0.77064    -8.24  RIGHT     7.48103E-01  -106.65    5.82993E-01   159.07
   28.00    90.00       4.81    2.90    6.97    0.78740   -11.07  RIGHT     6.68056E-01  -108.33    5.35700E-01   156.47
   30.00    90.00       3.65    2.08    5.95    0.81167   -14.92  RIGHT     5.84143E-01  -110.09    4.87751E-01   153.94
   32.00    90.00       2.25    1.18    4.76    0.84511   -21.17  RIGHT     4.97531E-01  -111.91    4.39571E-01   151.59
   34.00    90.00       0.57    0.17    3.38    0.88288   -34.36  RIGHT     4.09609E-01  -113.77    3.91586E-01   149.59
   36.00    90.00      -1.53   -0.94    1.78    0.87996   -60.85  RIGHT     3.21964E-01  -115.61    3.44257E-01   148.17
   38.00    90.00      -4.21   -2.19   -0.08    0.77954   -79.65  RIGHT     2.36325E-01  -117.28    2.98144E-01   147.64
   40.00    90.00      -7.90   -3.58   -2.22    0.60622   -86.94  RIGHT     1.54516E-01  -118.33    2.54030E-01   148.48
   42.00    90.00     -13.78   -5.11   -4.56    0.36810   -89.18  RIGHT     7.85024E-02  -116.69    2.13109E-01   151.39
   44.00    90.00     -28.26   -6.71   -6.68    0.06314   -86.86  RIGHT     1.48313E-02   -71.89    1.77272E-01   157.30
   46.00    90.00     -16.97   -8.20   -7.65    0.25097   -75.16  LEFT      5.44081E-02    34.49    1.49401E-01   167.24
   48.00    90.00     -11.23   -9.20   -7.09    0.31411   -53.09  LEFT      1.05387E-01    37.24    1.33009E-01  -178.73
   50.00    90.00      -8.34   -9.40   -5.82    0.15767   -41.33  LEFT      1.47000E-01    35.12    1.30099E-01  -162.94
   52.00    90.00      -6.63   -8.85   -4.59    0.00396   -37.76  LEFT      1.78871E-01    31.55    1.38547E-01  -148.92
   54.00    90.00      -5.60   -7.97   -3.62    0.12313   -37.02  RIGHT     2.01441E-01    27.15    1.53271E-01  -138.27
   56.00    90.00      -5.01   -7.10   -2.92    0.23567   -37.34  RIGHT     2.15633E-01    22.14    1.69454E-01  -130.50
   58.00    90.00      -4.73   -6.39   -2.47    0.34410   -38.05  RIGHT     2.22675E-01    16.65    1.83857E-01  -124.54
   60.00    90.00      -4.68   -5.90   -2.24    0.45584   -38.88  RIGHT     2.23889E-01    10.86    1.94665E-01  -119.48
   62.00    90.00      -4.82   -5.61   -2.19    0.57668   -39.74  RIGHT     2.20452E-01     4.99    2.01124E-01  -114.65
   64.00    90.00      -5.11   -5.52   -2.30    0.71156   -40.83  RIGHT     2.13203E-01    -0.67    2.03291E-01  -109.61
   66.00    90.00      -5.55   -5.58   -2.56    0.86408   -44.28  RIGHT     2.02571E-01    -5.74    2.01832E-01  -104.08
   68.00    90.00      -6.17   -5.76   -2.95    0.94423    72.66  RIGHT     1.88666E-01    -9.80    1.97779E-01   -97.92
   70.00    90.00      -6.99   -6.01   -3.46    0.79755    60.30  RIGHT     1.71545E-01   -12.33    1.92199E-01   -91.22
   72.00    90.00      -8.07   -6.30   -4.09    0.67854    61.45  RIGHT     1.51596E-01   -12.66    1.85807E-01   -84.20
   74.00    90.00      -9.40   -6.64   -4.80    0.59493    65.07  RIGHT     1.30006E-01    -9.79    1.78657E-01   -77.24
   76.00    90.00     -10.91   -7.07   -5.57    0.55240    70.61  RIGHT     1.09341E-01    -2.24    1.70068E-01   -70.74
   78.00    90.00     -12.22   -7.66   -6.36    0.55911    78.39  RIGHT     9.40059E-02    11.37    1.58854E-01   -65.00
   80.00    90.00     -12.69   -8.53   -7.12    0.61960    89.86  RIGHT     8.90619E-02    29.67    1.43740E-01   -60.19
   82.00    90.00     -12.08   -9.83   -7.80    0.70421   -69.34  RIGHT     9.55704E-02    46.94    1.23784E-01   -56.36
   84.00    90.00     -10.96  -11.80   -8.35    0.66005   -37.93  RIGHT     1.08651E-01    59.05    9.86731E-02   -53.47
   86.00    90.00      -9.94  -14.93   -8.75    0.45828   -18.74  RIGHT     1.22159E-01    66.21    6.88331E-02   -51.47
   88.00    90.00      -9.28  -20.70   -8.98    0.22776    -8.11  RIGHT     1.31803E-01    69.87    3.53893E-02   -50.30
   90.00    90.00      -9.06 -999.99   -9.06    0.00000     0.00  LINEAR    1.35261E-01    70.98    5.22290E-12   130.08






 ***** DATA CARD NO.  8   XQ   0     0     0     0  0.00000E+00  0.00000E+00  0.00000E+00  0.00000E+00  0.00000E+00  0.00000E+00
 ***** DATA CARD NO.  9   EN   0     0     0     0  0.00000E+00  0.00000E+00  0.00000E+00  0.00000E+00  0.00000E+00  0.00000E+00

 RUN TIME =     7.520
