1



                                 *********************************************

                                    NUMERICAL ELECTROMAGNETICS CODE (NEC-2D)

                                 *********************************************




                                     - - - - COMMENTS - - - -


                          2-part Helix model                                                         
                          1st 2-turns are used as matching section, smaller pitch.                   
                          2nd set of N-2 turns are standard pitch and spacing.                       
                                                                                                     




                                 - - - STRUCTURE SPECIFICATION - - -

                                     COORDINATES MUST BE INPUT IN
                                     METERS OR BE SCALED TO METERS
                                     BEFORE STRUCTURE INPUT IS ENDED


  WIRE                                                                               NO. OF    FIRST  LAST     TAG
  NO.        X1         Y1         Z1          X2         Y2         Z2      RADIUS   SEG.     SEG.   SEG.     NO.
     HELIX STRUCTURE-   AXIAL SPACING BETWEEN TURNS =   0.169 TOTAL AXIAL LENGTH =   0.337
     1  RADIUS OF HELIX =     0.191     0.191     0.191     0.191           0.00010      36        1    36       1
     THE PITCH ANGLE IS    8.0000
     THE LENGTH OF WIRE/TURN IS    1.2118
     HELIX STRUCTURE-   AXIAL SPACING BETWEEN TURNS =   0.266 TOTAL AXIAL LENGTH =   1.064
     2  RADIUS OF HELIX =     0.191     0.191     0.191     0.191           0.00010      72       37   108       2
     THE PITCH ANGLE IS   12.5000
     THE LENGTH OF WIRE/TURN IS    1.2291
      THE STRUCTURE HAS BEEN MOVED, MOVE DATA CARD IS -
        0    0   0.00000   0.00000   0.00000   0.00000   0.00000   0.33730   2.00000
      THE STRUCTURE HAS BEEN MOVED, MOVE DATA CARD IS -
        2    1   0.00000   0.00000   0.00000   1.20000   0.00000   0.00000   1.00000
      THE STRUCTURE HAS BEEN MOVED, MOVE DATA CARD IS -
        4    1   0.00000   0.00000   0.00000   0.00000   1.20000   0.00000   1.00000

   GROUND PLANE SPECIFIED.

   WHERE WIRE ENDS TOUCH GROUND, CURRENT WILL BE INTERPOLATED TO IMAGE IN GROUND PLANE.


   TOTAL SEGMENTS USED=  432     NO. SEG. IN A SYMMETRIC CELL=  432     SYMMETRY FLAG=  0


         - MULTIPLE WIRE JUNCTIONS -
 JUNCTION    SEGMENTS  (- FOR END 1, + FOR END 2)
  NONE




                                 - - - - SEGMENTATION DATA - - - -

                                        COORDINATES IN METERS

                         I+ AND I- INDICATE THE SEGMENTS BEFORE AND AFTER I


  SEG.   COORDINATES OF SEG. CENTER     SEG.     ORIENTATION ANGLES    WIRE    CONNECTION DATA   TAG
  NO.       X         Y         Z       LENGTH     ALPHA     BETA      RADIUS    I-   I    I+    NO.
     1   0.18523   0.03266   0.00468   0.06699    8.04023 100.00000   0.00010     1    1    2      1
     2   0.16289   0.09404   0.01405   0.06699    8.04023 120.00000   0.00010     1    2    3      1
     3   0.12090   0.14408   0.02342   0.06699    8.04023 140.00000   0.00010     2    3    4      1
     4   0.06433   0.17674   0.03279   0.06699    8.04023 160.00000   0.00010     3    4    5      1
     5   0.00000   0.18808   0.04216   0.06699    8.04023 180.00000   0.00010     4    5    6      1
     6  -0.06433   0.17674   0.05153   0.06699    8.04023-160.00000   0.00010     5    6    7      1
     7  -0.12090   0.14408   0.06090   0.06699    8.04023-140.00000   0.00010     6    7    8      1
     8  -0.16289   0.09404   0.07027   0.06699    8.04023-120.00000   0.00010     7    8    9      1
     9  -0.18523   0.03266   0.07964   0.06699    8.04023-100.00000   0.00010     8    9   10      1
    10  -0.18523  -0.03266   0.08901   0.06699    8.04023 -80.00000   0.00010     9   10   11      1
    11  -0.16289  -0.09404   0.09838   0.06699    8.04023 -60.00000   0.00010    10   11   12      1
    12  -0.12090  -0.14408   0.10775   0.06699    8.04023 -40.00000   0.00010    11   12   13      1
    13  -0.06433  -0.17674   0.11712   0.06699    8.04023 -20.00000   0.00010    12   13   14      1
    14   0.00000  -0.18808   0.12649   0.06699    8.04023   0.00000   0.00010    13   14   15      1
    15   0.06433  -0.17674   0.13586   0.06699    8.04023  20.00000   0.00010    14   15   16      1
    16   0.12090  -0.14408   0.14523   0.06699    8.04023  39.99999   0.00010    15   16   17      1
    17   0.16289  -0.09404   0.15459   0.06699    8.04023  59.99999   0.00010    16   17   18      1
    18   0.18523  -0.03266   0.16396   0.06699    8.04023  79.99999   0.00010    17   18   19      1
    19   0.18523   0.03266   0.17333   0.06699    8.04023  99.99999   0.00010    18   19   20      1
    20   0.16289   0.09404   0.18270   0.06699    8.04023 119.99999   0.00010    19   20   21      1
    21   0.12090   0.14408   0.19207   0.06699    8.04023 139.99999   0.00010    20   21   22      1
    22   0.06433   0.17674   0.20144   0.06699    8.04023 159.99999   0.00010    21   22   23      1
    23   0.00000   0.18808   0.21081   0.06699    8.04023 179.99999   0.00010    22   23   24      1
    24  -0.06433   0.17674   0.22018   0.06699    8.04023-160.00001   0.00010    23   24   25      1
    25  -0.12090   0.14408   0.22955   0.06699    8.04023-140.00001   0.00010    24   25   26      1
    26  -0.16289   0.09404   0.23892   0.06699    8.04023-120.00001   0.00010    25   26   27      1
    27  -0.18523   0.03266   0.24829   0.06699    8.04023-100.00001   0.00010    26   27   28      1
    28  -0.18523  -0.03266   0.25766   0.06699    8.04023 -80.00001   0.00010    27   28   29      1
    29  -0.16289  -0.09404   0.26703   0.06699    8.04023 -60.00001   0.00010    28   29   30      1
    30  -0.12090  -0.14408   0.27640   0.06699    8.04023 -40.00001   0.00010    29   30   31      1
    31  -0.06433  -0.17674   0.28577   0.06699    8.04023 -20.00001   0.00010    30   31   32      1
    32   0.00000  -0.18808   0.29514   0.06699    8.04023  -0.00001   0.00010    31   32   33      1
    33   0.06433  -0.17674   0.30451   0.06699    8.04023  19.99999   0.00010    32   33   34      1
    34   0.12090  -0.14408   0.31387   0.06699    8.04023  39.99999   0.00010    33   34   35      1
    35   0.16289  -0.09404   0.32324   0.06699    8.04023  59.99999   0.00010    34   35   36      1
    36   0.18523  -0.03266   0.33261   0.06699    8.04023  79.99999   0.00010    35   36   37      1
    37   0.18523   0.03266   0.34469   0.06796   12.56167 100.00000   0.00010    36   37   38      2
    38   0.16289   0.09404   0.35947   0.06796   12.56167 120.00000   0.00010    37   38   39      2
    39   0.12090   0.14408   0.37425   0.06796   12.56167 140.00000   0.00010    38   39   40      2
    40   0.06433   0.17674   0.38903   0.06796   12.56167 160.00000   0.00010    39   40   41      2
    41   0.00000   0.18808   0.40381   0.06796   12.56167 180.00000   0.00010    40   41   42      2
    42  -0.06433   0.17674   0.41859   0.06796   12.56167-160.00000   0.00010    41   42   43      2
    43  -0.12090   0.14408   0.43337   0.06796   12.56167-140.00000   0.00010    42   43   44      2
    44  -0.16289   0.09404   0.44815   0.06796   12.56167-120.00000   0.00010    43   44   45      2
    45  -0.18523   0.03266   0.46292   0.06796   12.56167-100.00000   0.00010    44   45   46      2
    46  -0.18523  -0.03266   0.47770   0.06796   12.56167 -80.00000   0.00010    45   46   47      2
    47  -0.16289  -0.09404   0.49248   0.06796   12.56167 -60.00000   0.00010    46   47   48      2
    48  -0.12090  -0.14408   0.50726   0.06796   12.56167 -40.00000   0.00010    47   48   49      2
    49  -0.06433  -0.17674   0.52204   0.06796   12.56167 -20.00000   0.00010    48   49   50      2
    50   0.00000  -0.18808   0.53682   0.06796   12.56167   0.00000   0.00010    49   50   51      2
    51   0.06433  -0.17674   0.55160   0.06796   12.56167  20.00000   0.00010    50   51   52      2
    52   0.12090  -0.14408   0.56638   0.06796   12.56167  39.99999   0.00010    51   52   53      2
    53   0.16289  -0.09404   0.58116   0.06796   12.56167  59.99999   0.00010    52   53   54      2
    54   0.18523  -0.03266   0.59594   0.06796   12.56167  79.99999   0.00010    53   54   55      2
    55   0.18523   0.03266   0.61072   0.06796   12.56167  99.99999   0.00010    54   55   56      2
    56   0.16289   0.09404   0.62550   0.06796   12.56167 119.99999   0.00010    55   56   57      2
    57   0.12090   0.14408   0.64028   0.06796   12.56167 139.99999   0.00010    56   57   58      2
    58   0.06433   0.17674   0.65506   0.06796   12.56167 159.99999   0.00010    57   58   59      2
    59   0.00000   0.18808   0.66984   0.06796   12.56167 179.99999   0.00010    58   59   60      2
    60  -0.06433   0.17674   0.68462   0.06796   12.56167-160.00001   0.00010    59   60   61      2
    61  -0.12090   0.14408   0.69940   0.06796   12.56167-140.00001   0.00010    60   61   62      2
    62  -0.16289   0.09404   0.71418   0.06796   12.56167-120.00001   0.00010    61   62   63      2
    63  -0.18523   0.03266   0.72896   0.06796   12.56167-100.00001   0.00010    62   63   64      2
    64  -0.18523  -0.03266   0.74374   0.06796   12.56167 -80.00001   0.00010    63   64   65      2
    65  -0.16289  -0.09404   0.75852   0.06796   12.56167 -60.00001   0.00010    64   65   66      2
    66  -0.12090  -0.14408   0.77330   0.06796   12.56167 -40.00001   0.00010    65   66   67      2
    67  -0.06433  -0.17674   0.78808   0.06796   12.56167 -20.00001   0.00010    66   67   68      2
    68   0.00000  -0.18808   0.80286   0.06796   12.56167  -0.00001   0.00010    67   68   69      2
    69   0.06433  -0.17674   0.81764   0.06796   12.56167  19.99999   0.00010    68   69   70      2
    70   0.12090  -0.14408   0.83242   0.06796   12.56167  39.99999   0.00010    69   70   71      2
    71   0.16289  -0.09404   0.84720   0.06796   12.56167  59.99999   0.00010    70   71   72      2
    72   0.18523  -0.03266   0.86198   0.06796   12.56167  79.99999   0.00010    71   72   73      2
    73   0.18523   0.03266   0.87676   0.06796   12.56167  99.99999   0.00010    72   73   74      2
    74   0.16289   0.09404   0.89153   0.06796   12.56167 119.99999   0.00010    73   74   75      2
    75   0.12090   0.14408   0.90631   0.06796   12.56167 139.99999   0.00010    74   75   76      2
    76   0.06433   0.17674   0.92109   0.06796   12.56167 159.99999   0.00010    75   76   77      2
    77   0.00000   0.18808   0.93587   0.06796   12.56167 179.99999   0.00010    76   77   78      2
    78  -0.06433   0.17674   0.95065   0.06796   12.56167-160.00001   0.00010    77   78   79      2
    79  -0.12090   0.14408   0.96543   0.06796   12.56167-140.00001   0.00010    78   79   80      2
    80  -0.16289   0.09404   0.98021   0.06796   12.56167-120.00001   0.00010    79   80   81      2
    81  -0.18523   0.03266   0.99499   0.06796   12.56167-100.00002   0.00010    80   81   82      2
    82  -0.18523  -0.03266   1.00977   0.06796   12.56167 -80.00002   0.00010    81   82   83      2
    83  -0.16289  -0.09404   1.02455   0.06796   12.56167 -60.00002   0.00010    82   83   84      2
    84  -0.12090  -0.14408   1.03933   0.06796   12.56167 -40.00002   0.00010    83   84   85      2
    85  -0.06433  -0.17674   1.05411   0.06796   12.56167 -20.00002   0.00010    84   85   86      2
    86   0.00000  -0.18808   1.06889   0.06796   12.56167  -0.00002   0.00010    85   86   87      2
    87   0.06433  -0.17674   1.08367   0.06796   12.56167  19.99998   0.00010    86   87   88      2
    88   0.12090  -0.14408   1.09845   0.06796   12.56167  39.99998   0.00010    87   88   89      2
    89   0.16289  -0.09404   1.11323   0.06796   12.56167  59.99998   0.00010    88   89   90      2
    90   0.18523  -0.03266   1.12801   0.06796   12.56167  79.99998   0.00010    89   90   91      2
    91   0.18523   0.03266   1.14279   0.06796   12.56167  99.99998   0.00010    90   91   92      2
    92   0.16289   0.09404   1.15757   0.06796   12.56167 119.99998   0.00010    91   92   93      2
    93   0.12090   0.14408   1.17235   0.06796   12.56167 139.99998   0.00010    92   93   94      2
    94   0.06433   0.17674   1.18713   0.06796   12.56167 159.99998   0.00010    93   94   95      2
    95   0.00000   0.18808   1.20191   0.06796   12.56167 179.99998   0.00010    94   95   96      2
    96  -0.06433   0.17674   1.21669   0.06796   12.56167-160.00002   0.00010    95   96   97      2
    97  -0.12090   0.14408   1.23147   0.06796   12.56167-140.00002   0.00010    96   97   98      2
    98  -0.16289   0.09404   1.24625   0.06796   12.56167-120.00002   0.00010    97   98   99      2
    99  -0.18523   0.03266   1.26103   0.06796   12.56167-100.00002   0.00010    98   99  100      2
   100  -0.18523  -0.03266   1.27581   0.06796   12.56167 -80.00002   0.00010    99  100  101      2
   101  -0.16289  -0.09404   1.29059   0.06796   12.56167 -60.00002   0.00010   100  101  102      2
   102  -0.12090  -0.14408   1.30536   0.06796   12.56167 -40.00002   0.00010   101  102  103      2
   103  -0.06433  -0.17674   1.32014   0.06796   12.56167 -20.00002   0.00010   102  103  104      2
   104   0.00000  -0.18808   1.33492   0.06796   12.56167  -0.00002   0.00010   103  104  105      2
   105   0.06433  -0.17674   1.34970   0.06796   12.56167  19.99998   0.00010   104  105  106      2
   106   0.12090  -0.14408   1.36448   0.06796   12.56167  39.99998   0.00010   105  106  107      2
   107   0.16289  -0.09404   1.37926   0.06796   12.56167  59.99998   0.00010   106  107  108      2
   108   0.18523  -0.03266   1.39404   0.06796   12.56167  79.99998   0.00010   107  108    0      2
   109   1.38523   0.03266   0.00468   0.06699    8.04023 100.00000   0.00010   109  109  110      3
   110   1.36289   0.09404   0.01405   0.06699    8.04023 120.00000   0.00010   109  110  111      3
   111   1.32090   0.14408   0.02342   0.06699    8.04023 140.00000   0.00010   110  111  112      3
   112   1.26433   0.17674   0.03279   0.06699    8.04023 160.00000   0.00010   111  112  113      3
   113   1.20000   0.18808   0.04216   0.06699    8.04023 180.00000   0.00010   112  113  114      3
   114   1.13567   0.17674   0.05153   0.06699    8.04023-160.00000   0.00010   113  114  115      3
   115   1.07910   0.14408   0.06090   0.06699    8.04023-140.00000   0.00010   114  115  116      3
   116   1.03711   0.09404   0.07027   0.06699    8.04023-120.00000   0.00010   115  116  117      3
   117   1.01477   0.03266   0.07964   0.06699    8.04023-100.00000   0.00010   116  117  118      3
   118   1.01477  -0.03266   0.08901   0.06699    8.04023 -80.00000   0.00010   117  118  119      3
   119   1.03711  -0.09404   0.09838   0.06699    8.04023 -60.00000   0.00010   118  119  120      3
   120   1.07910  -0.14408   0.10775   0.06699    8.04023 -40.00000   0.00010   119  120  121      3
   121   1.13567  -0.17674   0.11712   0.06699    8.04023 -20.00000   0.00010   120  121  122      3
   122   1.20000  -0.18808   0.12649   0.06699    8.04023   0.00000   0.00010   121  122  123      3
   123   1.26433  -0.17674   0.13586   0.06699    8.04023  20.00000   0.00010   122  123  124      3
   124   1.32090  -0.14408   0.14523   0.06699    8.04023  39.99999   0.00010   123  124  125      3
   125   1.36289  -0.09404   0.15459   0.06699    8.04023  59.99999   0.00010   124  125  126      3
   126   1.38523  -0.03266   0.16396   0.06699    8.04023  79.99999   0.00010   125  126  127      3
   127   1.38523   0.03266   0.17333   0.06699    8.04023  99.99999   0.00010   126  127  128      3
   128   1.36289   0.09404   0.18270   0.06699    8.04023 119.99999   0.00010   127  128  129      3
   129   1.32090   0.14408   0.19207   0.06699    8.04023 139.99999   0.00010   128  129  130      3
   130   1.26433   0.17674   0.20144   0.06699    8.04023 159.99999   0.00010   129  130  131      3
   131   1.20000   0.18808   0.21081   0.06699    8.04023 179.99999   0.00010   130  131  132      3
   132   1.13567   0.17674   0.22018   0.06699    8.04023-160.00001   0.00010   131  132  133      3
   133   1.07910   0.14408   0.22955   0.06699    8.04023-140.00001   0.00010   132  133  134      3
   134   1.03711   0.09404   0.23892   0.06699    8.04023-120.00001   0.00010   133  134  135      3
   135   1.01477   0.03266   0.24829   0.06699    8.04023-100.00001   0.00010   134  135  136      3
   136   1.01477  -0.03266   0.25766   0.06699    8.04023 -80.00001   0.00010   135  136  137      3
   137   1.03711  -0.09404   0.26703   0.06699    8.04023 -60.00001   0.00010   136  137  138      3
   138   1.07910  -0.14408   0.27640   0.06699    8.04023 -40.00001   0.00010   137  138  139      3
   139   1.13567  -0.17674   0.28577   0.06699    8.04023 -20.00001   0.00010   138  139  140      3
   140   1.20000  -0.18808   0.29514   0.06699    8.04023  -0.00001   0.00010   139  140  141      3
   141   1.26433  -0.17674   0.30451   0.06699    8.04023  19.99999   0.00010   140  141  142      3
   142   1.32090  -0.14408   0.31387   0.06699    8.04023  39.99999   0.00010   141  142  143      3
   143   1.36289  -0.09404   0.32324   0.06699    8.04023  59.99999   0.00010   142  143  144      3
   144   1.38523  -0.03266   0.33261   0.06699    8.04023  79.99999   0.00010   143  144  145      3
   145   1.38523   0.03266   0.34469   0.06796   12.56167 100.00000   0.00010   144  145  146      4
   146   1.36289   0.09404   0.35947   0.06796   12.56167 120.00000   0.00010   145  146  147      4
   147   1.32090   0.14408   0.37425   0.06796   12.56167 140.00000   0.00010   146  147  148      4
   148   1.26433   0.17674   0.38903   0.06796   12.56167 160.00000   0.00010   147  148  149      4
   149   1.20000   0.18808   0.40381   0.06796   12.56167 180.00000   0.00010   148  149  150      4
   150   1.13567   0.17674   0.41859   0.06796   12.56167-160.00000   0.00010   149  150  151      4
   151   1.07910   0.14408   0.43337   0.06796   12.56167-140.00000   0.00010   150  151  152      4
   152   1.03711   0.09404   0.44815   0.06796   12.56167-120.00000   0.00010   151  152  153      4
   153   1.01477   0.03266   0.46292   0.06796   12.56167-100.00000   0.00010   152  153  154      4
   154   1.01477  -0.03266   0.47770   0.06796   12.56167 -80.00000   0.00010   153  154  155      4
   155   1.03711  -0.09404   0.49248   0.06796   12.56167 -60.00000   0.00010   154  155  156      4
   156   1.07910  -0.14408   0.50726   0.06796   12.56167 -40.00000   0.00010   155  156  157      4
   157   1.13567  -0.17674   0.52204   0.06796   12.56167 -20.00000   0.00010   156  157  158      4
   158   1.20000  -0.18808   0.53682   0.06796   12.56167   0.00000   0.00010   157  158  159      4
   159   1.26433  -0.17674   0.55160   0.06796   12.56167  20.00000   0.00010   158  159  160      4
   160   1.32090  -0.14408   0.56638   0.06796   12.56167  39.99999   0.00010   159  160  161      4
   161   1.36289  -0.09404   0.58116   0.06796   12.56167  59.99999   0.00010   160  161  162      4
   162   1.38523  -0.03266   0.59594   0.06796   12.56167  79.99999   0.00010   161  162  163      4
   163   1.38523   0.03266   0.61072   0.06796   12.56167  99.99999   0.00010   162  163  164      4
   164   1.36289   0.09404   0.62550   0.06796   12.56167 119.99999   0.00010   163  164  165      4
   165   1.32090   0.14408   0.64028   0.06796   12.56167 139.99999   0.00010   164  165  166      4
   166   1.26433   0.17674   0.65506   0.06796   12.56167 159.99999   0.00010   165  166  167      4
   167   1.20000   0.18808   0.66984   0.06796   12.56167 179.99999   0.00010   166  167  168      4
   168   1.13567   0.17674   0.68462   0.06796   12.56167-160.00001   0.00010   167  168  169      4
   169   1.07910   0.14408   0.69940   0.06796   12.56167-140.00001   0.00010   168  169  170      4
   170   1.03711   0.09404   0.71418   0.06796   12.56167-120.00001   0.00010   169  170  171      4
   171   1.01477   0.03266   0.72896   0.06796   12.56167-100.00001   0.00010   170  171  172      4
   172   1.01477  -0.03266   0.74374   0.06796   12.56167 -80.00001   0.00010   171  172  173      4
   173   1.03711  -0.09404   0.75852   0.06796   12.56167 -60.00001   0.00010   172  173  174      4
   174   1.07910  -0.14408   0.77330   0.06796   12.56167 -40.00001   0.00010   173  174  175      4
   175   1.13567  -0.17674   0.78808   0.06796   12.56167 -20.00001   0.00010   174  175  176      4
   176   1.20000  -0.18808   0.80286   0.06796   12.56167  -0.00001   0.00010   175  176  177      4
   177   1.26433  -0.17674   0.81764   0.06796   12.56167  19.99999   0.00010   176  177  178      4
   178   1.32090  -0.14408   0.83242   0.06796   12.56167  39.99999   0.00010   177  178  179      4
   179   1.36289  -0.09404   0.84720   0.06796   12.56167  59.99999   0.00010   178  179  180      4
   180   1.38523  -0.03266   0.86198   0.06796   12.56167  79.99999   0.00010   179  180  181      4
   181   1.38523   0.03266   0.87676   0.06796   12.56167  99.99999   0.00010   180  181  182      4
   182   1.36289   0.09404   0.89153   0.06796   12.56167 119.99999   0.00010   181  182  183      4
   183   1.32090   0.14408   0.90631   0.06796   12.56167 139.99999   0.00010   182  183  184      4
   184   1.26433   0.17674   0.92109   0.06796   12.56167 159.99999   0.00010   183  184  185      4
   185   1.20000   0.18808   0.93587   0.06796   12.56167 179.99999   0.00010   184  185  186      4
   186   1.13567   0.17674   0.95065   0.06796   12.56167-160.00001   0.00010   185  186  187      4
   187   1.07910   0.14408   0.96543   0.06796   12.56167-140.00001   0.00010   186  187  188      4
   188   1.03711   0.09404   0.98021   0.06796   12.56167-120.00001   0.00010   187  188  189      4
   189   1.01477   0.03266   0.99499   0.06796   12.56167-100.00002   0.00010   188  189  190      4
   190   1.01477  -0.03266   1.00977   0.06796   12.56167 -80.00002   0.00010   189  190  191      4
   191   1.03711  -0.09404   1.02455   0.06796   12.56167 -60.00002   0.00010   190  191  192      4
   192   1.07910  -0.14408   1.03933   0.06796   12.56167 -40.00002   0.00010   191  192  193      4
   193   1.13567  -0.17674   1.05411   0.06796   12.56167 -20.00002   0.00010   192  193  194      4
   194   1.20000  -0.18808   1.06889   0.06796   12.56167  -0.00002   0.00010   193  194  195      4
   195   1.26433  -0.17674   1.08367   0.06796   12.56167  19.99998   0.00010   194  195  196      4
   196   1.32090  -0.14408   1.09845   0.06796   12.56167  39.99998   0.00010   195  196  197      4
   197   1.36289  -0.09404   1.11323   0.06796   12.56167  59.99998   0.00010   196  197  198      4
   198   1.38523  -0.03266   1.12801   0.06796   12.56167  79.99998   0.00010   197  198  199      4
   199   1.38523   0.03266   1.14279   0.06796   12.56167  99.99998   0.00010   198  199  200      4
   200   1.36289   0.09404   1.15757   0.06796   12.56167 119.99998   0.00010   199  200  201      4
   201   1.32090   0.14408   1.17235   0.06796   12.56167 139.99998   0.00010   200  201  202      4
   202   1.26433   0.17674   1.18713   0.06796   12.56167 159.99998   0.00010   201  202  203      4
   203   1.20000   0.18808   1.20191   0.06796   12.56167 179.99998   0.00010   202  203  204      4
   204   1.13567   0.17674   1.21669   0.06796   12.56167-160.00002   0.00010   203  204  205      4
   205   1.07910   0.14408   1.23147   0.06796   12.56167-140.00002   0.00010   204  205  206      4
   206   1.03711   0.09404   1.24625   0.06796   12.56167-120.00002   0.00010   205  206  207      4
   207   1.01477   0.03266   1.26103   0.06796   12.56167-100.00002   0.00010   206  207  208      4
   208   1.01477  -0.03266   1.27581   0.06796   12.56167 -80.00002   0.00010   207  208  209      4
   209   1.03711  -0.09404   1.29059   0.06796   12.56167 -60.00002   0.00010   208  209  210      4
   210   1.07910  -0.14408   1.30536   0.06796   12.56167 -40.00002   0.00010   209  210  211      4
   211   1.13567  -0.17674   1.32014   0.06796   12.56167 -20.00002   0.00010   210  211  212      4
   212   1.20000  -0.18808   1.33492   0.06796   12.56167  -0.00002   0.00010   211  212  213      4
   213   1.26433  -0.17674   1.34970   0.06796   12.56167  19.99998   0.00010   212  213  214      4
   214   1.32090  -0.14408   1.36448   0.06796   12.56167  39.99998   0.00010   213  214  215      4
   215   1.36289  -0.09404   1.37926   0.06796   12.56167  59.99998   0.00010   214  215  216      4
   216   1.38523  -0.03266   1.39404   0.06796   12.56167  79.99998   0.00010   215  216    0      4
   217   0.18523   1.23266   0.00468   0.06699    8.04023 100.00000   0.00010   217  217  218      5
   218   0.16289   1.29404   0.01405   0.06699    8.04023 120.00000   0.00010   217  218  219      5
   219   0.12090   1.34408   0.02342   0.06699    8.04023 140.00000   0.00010   218  219  220      5
   220   0.06433   1.37674   0.03279   0.06699    8.04023 160.00000   0.00010   219  220  221      5
   221   0.00000   1.38808   0.04216   0.06699    8.04023 180.00000   0.00010   220  221  222      5
   222  -0.06433   1.37674   0.05153   0.06699    8.04023-160.00000   0.00010   221  222  223      5
   223  -0.12090   1.34408   0.06090   0.06699    8.04023-140.00000   0.00010   222  223  224      5
   224  -0.16289   1.29404   0.07027   0.06699    8.04023-120.00000   0.00010   223  224  225      5
   225  -0.18523   1.23266   0.07964   0.06699    8.04023-100.00000   0.00010   224  225  226      5
   226  -0.18523   1.16734   0.08901   0.06699    8.04023 -80.00000   0.00010   225  226  227      5
   227  -0.16289   1.10596   0.09838   0.06699    8.04023 -60.00000   0.00010   226  227  228      5
   228  -0.12090   1.05592   0.10775   0.06699    8.04023 -40.00000   0.00010   227  228  229      5
   229  -0.06433   1.02326   0.11712   0.06699    8.04023 -20.00000   0.00010   228  229  230      5
   230   0.00000   1.01192   0.12649   0.06699    8.04023   0.00000   0.00010   229  230  231      5
   231   0.06433   1.02326   0.13586   0.06699    8.04023  20.00000   0.00010   230  231  232      5
   232   0.12090   1.05592   0.14523   0.06699    8.04023  39.99999   0.00010   231  232  233      5
   233   0.16289   1.10596   0.15459   0.06699    8.04023  59.99999   0.00010   232  233  234      5
   234   0.18523   1.16734   0.16396   0.06699    8.04023  79.99999   0.00010   233  234  235      5
   235   0.18523   1.23266   0.17333   0.06699    8.04023  99.99999   0.00010   234  235  236      5
   236   0.16289   1.29404   0.18270   0.06699    8.04023 119.99999   0.00010   235  236  237      5
   237   0.12090   1.34408   0.19207   0.06699    8.04023 139.99999   0.00010   236  237  238      5
   238   0.06433   1.37674   0.20144   0.06699    8.04023 159.99999   0.00010   237  238  239      5
   239   0.00000   1.38808   0.21081   0.06699    8.04023 179.99999   0.00010   238  239  240      5
   240  -0.06433   1.37674   0.22018   0.06699    8.04023-160.00001   0.00010   239  240  241      5
   241  -0.12090   1.34408   0.22955   0.06699    8.04023-140.00001   0.00010   240  241  242      5
   242  -0.16289   1.29404   0.23892   0.06699    8.04023-120.00001   0.00010   241  242  243      5
   243  -0.18523   1.23266   0.24829   0.06699    8.04023-100.00001   0.00010   242  243  244      5
   244  -0.18523   1.16734   0.25766   0.06699    8.04023 -80.00001   0.00010   243  244  245      5
   245  -0.16289   1.10596   0.26703   0.06699    8.04023 -60.00001   0.00010   244  245  246      5
   246  -0.12090   1.05592   0.27640   0.06699    8.04023 -40.00001   0.00010   245  246  247      5
   247  -0.06433   1.02326   0.28577   0.06699    8.04023 -20.00001   0.00010   246  247  248      5
   248   0.00000   1.01192   0.29514   0.06699    8.04023  -0.00001   0.00010   247  248  249      5
   249   0.06433   1.02326   0.30451   0.06699    8.04023  19.99999   0.00010   248  249  250      5
   250   0.12090   1.05592   0.31387   0.06699    8.04023  39.99999   0.00010   249  250  251      5
   251   0.16289   1.10596   0.32324   0.06699    8.04023  59.99999   0.00010   250  251  252      5
   252   0.18523   1.16734   0.33261   0.06699    8.04023  79.99999   0.00010   251  252  253      5
   253   0.18523   1.23266   0.34469   0.06796   12.56167 100.00000   0.00010   252  253  254      6
   254   0.16289   1.29404   0.35947   0.06796   12.56167 120.00000   0.00010   253  254  255      6
   255   0.12090   1.34408   0.37425   0.06796   12.56167 140.00000   0.00010   254  255  256      6
   256   0.06433   1.37674   0.38903   0.06796   12.56167 160.00000   0.00010   255  256  257      6
   257   0.00000   1.38808   0.40381   0.06796   12.56167 180.00000   0.00010   256  257  258      6
   258  -0.06433   1.37674   0.41859   0.06796   12.56167-160.00000   0.00010   257  258  259      6
   259  -0.12090   1.34408   0.43337   0.06796   12.56167-140.00000   0.00010   258  259  260      6
   260  -0.16289   1.29404   0.44815   0.06796   12.56167-120.00000   0.00010   259  260  261      6
   261  -0.18523   1.23266   0.46292   0.06796   12.56167-100.00000   0.00010   260  261  262      6
   262  -0.18523   1.16734   0.47770   0.06796   12.56167 -80.00000   0.00010   261  262  263      6
   263  -0.16289   1.10596   0.49248   0.06796   12.56167 -60.00000   0.00010   262  263  264      6
   264  -0.12090   1.05592   0.50726   0.06796   12.56167 -40.00000   0.00010   263  264  265      6
   265  -0.06433   1.02326   0.52204   0.06796   12.56167 -20.00000   0.00010   264  265  266      6
   266   0.00000   1.01192   0.53682   0.06796   12.56167   0.00000   0.00010   265  266  267      6
   267   0.06433   1.02326   0.55160   0.06796   12.56167  20.00000   0.00010   266  267  268      6
   268   0.12090   1.05592   0.56638   0.06796   12.56167  39.99999   0.00010   267  268  269      6
   269   0.16289   1.10596   0.58116   0.06796   12.56167  59.99999   0.00010   268  269  270      6
   270   0.18523   1.16734   0.59594   0.06796   12.56167  79.99999   0.00010   269  270  271      6
   271   0.18523   1.23266   0.61072   0.06796   12.56167  99.99999   0.00010   270  271  272      6
   272   0.16289   1.29404   0.62550   0.06796   12.56167 119.99999   0.00010   271  272  273      6
   273   0.12090   1.34408   0.64028   0.06796   12.56167 139.99999   0.00010   272  273  274      6
   274   0.06433   1.37674   0.65506   0.06796   12.56167 159.99999   0.00010   273  274  275      6
   275   0.00000   1.38808   0.66984   0.06796   12.56167 179.99999   0.00010   274  275  276      6
   276  -0.06433   1.37674   0.68462   0.06796   12.56167-160.00001   0.00010   275  276  277      6
   277  -0.12090   1.34408   0.69940   0.06796   12.56167-140.00001   0.00010   276  277  278      6
   278  -0.16289   1.29404   0.71418   0.06796   12.56167-120.00001   0.00010   277  278  279      6
   279  -0.18523   1.23266   0.72896   0.06796   12.56167-100.00001   0.00010   278  279  280      6
   280  -0.18523   1.16734   0.74374   0.06796   12.56167 -80.00001   0.00010   279  280  281      6
   281  -0.16289   1.10596   0.75852   0.06796   12.56167 -60.00001   0.00010   280  281  282      6
   282  -0.12090   1.05592   0.77330   0.06796   12.56167 -40.00001   0.00010   281  282  283      6
   283  -0.06433   1.02326   0.78808   0.06796   12.56167 -20.00001   0.00010   282  283  284      6
   284   0.00000   1.01192   0.80286   0.06796   12.56167  -0.00001   0.00010   283  284  285      6
   285   0.06433   1.02326   0.81764   0.06796   12.56167  19.99999   0.00010   284  285  286      6
   286   0.12090   1.05592   0.83242   0.06796   12.56167  39.99999   0.00010   285  286  287      6
   287   0.16289   1.10596   0.84720   0.06796   12.56167  59.99999   0.00010   286  287  288      6
   288   0.18523   1.16734   0.86198   0.06796   12.56167  79.99999   0.00010   287  288  289      6
   289   0.18523   1.23266   0.87676   0.06796   12.56167  99.99999   0.00010   288  289  290      6
   290   0.16289   1.29404   0.89153   0.06796   12.56167 119.99999   0.00010   289  290  291      6
   291   0.12090   1.34408   0.90631   0.06796   12.56167 139.99999   0.00010   290  291  292      6
   292   0.06433   1.37674   0.92109   0.06796   12.56167 159.99999   0.00010   291  292  293      6
   293   0.00000   1.38808   0.93587   0.06796   12.56167 179.99999   0.00010   292  293  294      6
   294  -0.06433   1.37674   0.95065   0.06796   12.56167-160.00001   0.00010   293  294  295      6
   295  -0.12090   1.34408   0.96543   0.06796   12.56167-140.00001   0.00010   294  295  296      6
   296  -0.16289   1.29404   0.98021   0.06796   12.56167-120.00001   0.00010   295  296  297      6
   297  -0.18523   1.23266   0.99499   0.06796   12.56167-100.00002   0.00010   296  297  298      6
   298  -0.18523   1.16734   1.00977   0.06796   12.56167 -80.00002   0.00010   297  298  299      6
   299  -0.16289   1.10596   1.02455   0.06796   12.56167 -60.00002   0.00010   298  299  300      6
   300  -0.12090   1.05592   1.03933   0.06796   12.56167 -40.00002   0.00010   299  300  301      6
   301  -0.06433   1.02326   1.05411   0.06796   12.56167 -20.00002   0.00010   300  301  302      6
   302   0.00000   1.01192   1.06889   0.06796   12.56167  -0.00002   0.00010   301  302  303      6
   303   0.06433   1.02326   1.08367   0.06796   12.56167  19.99998   0.00010   302  303  304      6
   304   0.12090   1.05592   1.09845   0.06796   12.56167  39.99998   0.00010   303  304  305      6
   305   0.16289   1.10596   1.11323   0.06796   12.56167  59.99998   0.00010   304  305  306      6
   306   0.18523   1.16734   1.12801   0.06796   12.56167  79.99998   0.00010   305  306  307      6
   307   0.18523   1.23266   1.14279   0.06796   12.56167  99.99998   0.00010   306  307  308      6
   308   0.16289   1.29404   1.15757   0.06796   12.56167 119.99998   0.00010   307  308  309      6
   309   0.12090   1.34408   1.17235   0.06796   12.56167 139.99998   0.00010   308  309  310      6
   310   0.06433   1.37674   1.18713   0.06796   12.56167 159.99998   0.00010   309  310  311      6
   311   0.00000   1.38808   1.20191   0.06796   12.56167 179.99998   0.00010   310  311  312      6
   312  -0.06433   1.37674   1.21669   0.06796   12.56167-160.00002   0.00010   311  312  313      6
   313  -0.12090   1.34408   1.23147   0.06796   12.56167-140.00002   0.00010   312  313  314      6
   314  -0.16289   1.29404   1.24625   0.06796   12.56167-120.00002   0.00010   313  314  315      6
   315  -0.18523   1.23266   1.26103   0.06796   12.56167-100.00002   0.00010   314  315  316      6
   316  -0.18523   1.16734   1.27581   0.06796   12.56167 -80.00002   0.00010   315  316  317      6
   317  -0.16289   1.10596   1.29059   0.06796   12.56167 -60.00002   0.00010   316  317  318      6
   318  -0.12090   1.05592   1.30536   0.06796   12.56167 -40.00002   0.00010   317  318  319      6
   319  -0.06433   1.02326   1.32014   0.06796   12.56167 -20.00002   0.00010   318  319  320      6
   320   0.00000   1.01192   1.33492   0.06796   12.56167  -0.00002   0.00010   319  320  321      6
   321   0.06433   1.02326   1.34970   0.06796   12.56167  19.99998   0.00010   320  321  322      6
   322   0.12090   1.05592   1.36448   0.06796   12.56167  39.99998   0.00010   321  322  323      6
   323   0.16289   1.10596   1.37926   0.06796   12.56167  59.99998   0.00010   322  323  324      6
   324   0.18523   1.16734   1.39404   0.06796   12.56167  79.99998   0.00010   323  324    0      6
   325   1.38523   1.23266   0.00468   0.06699    8.04023 100.00000   0.00010   325  325  326      7
   326   1.36289   1.29404   0.01405   0.06699    8.04023 120.00000   0.00010   325  326  327      7
   327   1.32090   1.34408   0.02342   0.06699    8.04023 140.00000   0.00010   326  327  328      7
   328   1.26433   1.37674   0.03279   0.06699    8.04023 160.00000   0.00010   327  328  329      7
   329   1.20000   1.38808   0.04216   0.06699    8.04023 180.00000   0.00010   328  329  330      7
   330   1.13567   1.37674   0.05153   0.06699    8.04023-160.00000   0.00010   329  330  331      7
   331   1.07910   1.34408   0.06090   0.06699    8.04023-140.00000   0.00010   330  331  332      7
   332   1.03711   1.29404   0.07027   0.06699    8.04023-120.00000   0.00010   331  332  333      7
   333   1.01477   1.23266   0.07964   0.06699    8.04023-100.00000   0.00010   332  333  334      7
   334   1.01477   1.16734   0.08901   0.06699    8.04023 -80.00000   0.00010   333  334  335      7
   335   1.03711   1.10596   0.09838   0.06699    8.04023 -60.00000   0.00010   334  335  336      7
   336   1.07910   1.05592   0.10775   0.06699    8.04023 -40.00000   0.00010   335  336  337      7
   337   1.13567   1.02326   0.11712   0.06699    8.04023 -20.00000   0.00010   336  337  338      7
   338   1.20000   1.01192   0.12649   0.06699    8.04023   0.00000   0.00010   337  338  339      7
   339   1.26433   1.02326   0.13586   0.06699    8.04023  20.00000   0.00010   338  339  340      7
   340   1.32090   1.05592   0.14523   0.06699    8.04023  39.99999   0.00010   339  340  341      7
   341   1.36289   1.10596   0.15459   0.06699    8.04023  59.99999   0.00010   340  341  342      7
   342   1.38523   1.16734   0.16396   0.06699    8.04023  79.99999   0.00010   341  342  343      7
   343   1.38523   1.23266   0.17333   0.06699    8.04023  99.99999   0.00010   342  343  344      7
   344   1.36289   1.29404   0.18270   0.06699    8.04023 119.99999   0.00010   343  344  345      7
   345   1.32090   1.34408   0.19207   0.06699    8.04023 139.99999   0.00010   344  345  346      7
   346   1.26433   1.37674   0.20144   0.06699    8.04023 159.99999   0.00010   345  346  347      7
   347   1.20000   1.38808   0.21081   0.06699    8.04023 179.99999   0.00010   346  347  348      7
   348   1.13567   1.37674   0.22018   0.06699    8.04023-160.00001   0.00010   347  348  349      7
   349   1.07910   1.34408   0.22955   0.06699    8.04023-140.00001   0.00010   348  349  350      7
   350   1.03711   1.29404   0.23892   0.06699    8.04023-120.00001   0.00010   349  350  351      7
   351   1.01477   1.23266   0.24829   0.06699    8.04023-100.00001   0.00010   350  351  352      7
   352   1.01477   1.16734   0.25766   0.06699    8.04023 -80.00001   0.00010   351  352  353      7
   353   1.03711   1.10596   0.26703   0.06699    8.04023 -60.00001   0.00010   352  353  354      7
   354   1.07910   1.05592   0.27640   0.06699    8.04023 -40.00001   0.00010   353  354  355      7
   355   1.13567   1.02326   0.28577   0.06699    8.04023 -20.00001   0.00010   354  355  356      7
   356   1.20000   1.01192   0.29514   0.06699    8.04023  -0.00001   0.00010   355  356  357      7
   357   1.26433   1.02326   0.30451   0.06699    8.04023  19.99999   0.00010   356  357  358      7
   358   1.32090   1.05592   0.31387   0.06699    8.04023  39.99999   0.00010   357  358  359      7
   359   1.36289   1.10596   0.32324   0.06699    8.04023  59.99999   0.00010   358  359  360      7
   360   1.38523   1.16734   0.33261   0.06699    8.04023  79.99999   0.00010   359  360  361      7
   361   1.38523   1.23266   0.34469   0.06796   12.56167 100.00000   0.00010   360  361  362      8
   362   1.36289   1.29404   0.35947   0.06796   12.56167 120.00000   0.00010   361  362  363      8
   363   1.32090   1.34408   0.37425   0.06796   12.56167 140.00000   0.00010   362  363  364      8
   364   1.26433   1.37674   0.38903   0.06796   12.56167 160.00000   0.00010   363  364  365      8
   365   1.20000   1.38808   0.40381   0.06796   12.56167 180.00000   0.00010   364  365  366      8
   366   1.13567   1.37674   0.41859   0.06796   12.56167-160.00000   0.00010   365  366  367      8
   367   1.07910   1.34408   0.43337   0.06796   12.56167-140.00000   0.00010   366  367  368      8
   368   1.03711   1.29404   0.44815   0.06796   12.56167-120.00000   0.00010   367  368  369      8
   369   1.01477   1.23266   0.46292   0.06796   12.56167-100.00000   0.00010   368  369  370      8
   370   1.01477   1.16734   0.47770   0.06796   12.56167 -80.00000   0.00010   369  370  371      8
   371   1.03711   1.10596   0.49248   0.06796   12.56167 -60.00000   0.00010   370  371  372      8
   372   1.07910   1.05592   0.50726   0.06796   12.56167 -40.00000   0.00010   371  372  373      8
   373   1.13567   1.02326   0.52204   0.06796   12.56167 -20.00000   0.00010   372  373  374      8
   374   1.20000   1.01192   0.53682   0.06796   12.56167   0.00000   0.00010   373  374  375      8
   375   1.26433   1.02326   0.55160   0.06796   12.56167  20.00000   0.00010   374  375  376      8
   376   1.32090   1.05592   0.56638   0.06796   12.56167  39.99999   0.00010   375  376  377      8
   377   1.36289   1.10596   0.58116   0.06796   12.56167  59.99999   0.00010   376  377  378      8
   378   1.38523   1.16734   0.59594   0.06796   12.56167  79.99999   0.00010   377  378  379      8
   379   1.38523   1.23266   0.61072   0.06796   12.56167  99.99999   0.00010   378  379  380      8
   380   1.36289   1.29404   0.62550   0.06796   12.56167 119.99999   0.00010   379  380  381      8
   381   1.32090   1.34408   0.64028   0.06796   12.56167 139.99999   0.00010   380  381  382      8
   382   1.26433   1.37674   0.65506   0.06796   12.56167 159.99999   0.00010   381  382  383      8
   383   1.20000   1.38808   0.66984   0.06796   12.56167 179.99999   0.00010   382  383  384      8
   384   1.13567   1.37674   0.68462   0.06796   12.56167-160.00001   0.00010   383  384  385      8
   385   1.07910   1.34408   0.69940   0.06796   12.56167-140.00001   0.00010   384  385  386      8
   386   1.03711   1.29404   0.71418   0.06796   12.56167-120.00001   0.00010   385  386  387      8
   387   1.01477   1.23266   0.72896   0.06796   12.56167-100.00001   0.00010   386  387  388      8
   388   1.01477   1.16734   0.74374   0.06796   12.56167 -80.00001   0.00010   387  388  389      8
   389   1.03711   1.10596   0.75852   0.06796   12.56167 -60.00001   0.00010   388  389  390      8
   390   1.07910   1.05592   0.77330   0.06796   12.56167 -40.00001   0.00010   389  390  391      8
   391   1.13567   1.02326   0.78808   0.06796   12.56167 -20.00001   0.00010   390  391  392      8
   392   1.20000   1.01192   0.80286   0.06796   12.56167  -0.00001   0.00010   391  392  393      8
   393   1.26433   1.02326   0.81764   0.06796   12.56167  19.99999   0.00010   392  393  394      8
   394   1.32090   1.05592   0.83242   0.06796   12.56167  39.99999   0.00010   393  394  395      8
   395   1.36289   1.10596   0.84720   0.06796   12.56167  59.99999   0.00010   394  395  396      8
   396   1.38523   1.16734   0.86198   0.06796   12.56167  79.99999   0.00010   395  396  397      8
   397   1.38523   1.23266   0.87676   0.06796   12.56167  99.99999   0.00010   396  397  398      8
   398   1.36289   1.29404   0.89153   0.06796   12.56167 119.99999   0.00010   397  398  399      8
   399   1.32090   1.34408   0.90631   0.06796   12.56167 139.99999   0.00010   398  399  400      8
   400   1.26433   1.37674   0.92109   0.06796   12.56167 159.99999   0.00010   399  400  401      8
   401   1.20000   1.38808   0.93587   0.06796   12.56167 179.99999   0.00010   400  401  402      8
   402   1.13567   1.37674   0.95065   0.06796   12.56167-160.00001   0.00010   401  402  403      8
   403   1.07910   1.34408   0.96543   0.06796   12.56167-140.00001   0.00010   402  403  404      8
   404   1.03711   1.29404   0.98021   0.06796   12.56167-120.00001   0.00010   403  404  405      8
   405   1.01477   1.23266   0.99499   0.06796   12.56167-100.00002   0.00010   404  405  406      8
   406   1.01477   1.16734   1.00977   0.06796   12.56167 -80.00002   0.00010   405  406  407      8
   407   1.03711   1.10596   1.02455   0.06796   12.56167 -60.00002   0.00010   406  407  408      8
   408   1.07910   1.05592   1.03933   0.06796   12.56167 -40.00002   0.00010   407  408  409      8
   409   1.13567   1.02326   1.05411   0.06796   12.56167 -20.00002   0.00010   408  409  410      8
   410   1.20000   1.01192   1.06889   0.06796   12.56167  -0.00002   0.00010   409  410  411      8
   411   1.26433   1.02326   1.08367   0.06796   12.56167  19.99998   0.00010   410  411  412      8
   412   1.32090   1.05592   1.09845   0.06796   12.56167  39.99998   0.00010   411  412  413      8
   413   1.36289   1.10596   1.11323   0.06796   12.56167  59.99998   0.00010   412  413  414      8
   414   1.38523   1.16734   1.12801   0.06796   12.56167  79.99998   0.00010   413  414  415      8
   415   1.38523   1.23266   1.14279   0.06796   12.56167  99.99998   0.00010   414  415  416      8
   416   1.36289   1.29404   1.15757   0.06796   12.56167 119.99998   0.00010   415  416  417      8
   417   1.32090   1.34408   1.17235   0.06796   12.56167 139.99998   0.00010   416  417  418      8
   418   1.26433   1.37674   1.18713   0.06796   12.56167 159.99998   0.00010   417  418  419      8
   419   1.20000   1.38808   1.20191   0.06796   12.56167 179.99998   0.00010   418  419  420      8
   420   1.13567   1.37674   1.21669   0.06796   12.56167-160.00002   0.00010   419  420  421      8
   421   1.07910   1.34408   1.23147   0.06796   12.56167-140.00002   0.00010   420  421  422      8
   422   1.03711   1.29404   1.24625   0.06796   12.56167-120.00002   0.00010   421  422  423      8
   423   1.01477   1.23266   1.26103   0.06796   12.56167-100.00002   0.00010   422  423  424      8
   424   1.01477   1.16734   1.27581   0.06796   12.56167 -80.00002   0.00010   423  424  425      8
   425   1.03711   1.10596   1.29059   0.06796   12.56167 -60.00002   0.00010   424  425  426      8
   426   1.07910   1.05592   1.30536   0.06796   12.56167 -40.00002   0.00010   425  426  427      8
   427   1.13567   1.02326   1.32014   0.06796   12.56167 -20.00002   0.00010   426  427  428      8
   428   1.20000   1.01192   1.33492   0.06796   12.56167  -0.00002   0.00010   427  428  429      8
   429   1.26433   1.02326   1.34970   0.06796   12.56167  19.99998   0.00010   428  429  430      8
   430   1.32090   1.05592   1.36448   0.06796   12.56167  39.99998   0.00010   429  430  431      8
   431   1.36289   1.10596   1.37926   0.06796   12.56167  59.99998   0.00010   430  431  432      8
   432   1.38523   1.16734   1.39404   0.06796   12.56167  79.99998   0.00010   431  432    0      8






 ***** DATA CARD NO.  1   GN   1     0     0     0  0.00000E+00  0.00000E+00  0.00000E+00  0.00000E+00  0.00000E+00  0.00000E+00
 ***** DATA CARD NO.  2   EK   0     0     0     0  0.00000E+00  0.00000E+00  0.00000E+00  0.00000E+00  0.00000E+00  0.00000E+00
 ***** DATA CARD NO.  3   EX   0     1     2     0  1.00000E+00  0.00000E+00  0.00000E+00  0.00000E+00  0.00000E+00  0.00000E+00
 ***** DATA CARD NO.  4   EX   0     3     2     0  1.00000E+00  0.00000E+00  0.00000E+00  0.00000E+00  0.00000E+00  0.00000E+00
 ***** DATA CARD NO.  5   EX   0     5     2     0  1.00000E+00  0.00000E+00  0.00000E+00  0.00000E+00  0.00000E+00  0.00000E+00
 ***** DATA CARD NO.  6   EX   0     7     2     0  1.00000E+00  0.00000E+00  0.00000E+00  0.00000E+00  0.00000E+00  0.00000E+00
 ***** DATA CARD NO.  7   FR   0     0     0     0  3.00000E+02  0.00000E+00  0.00000E+00  0.00000E+00  0.00000E+00  0.00000E+00
 ***** DATA CARD NO.  8   RP   0    91     1  1000 -9.00000E+01  0.00000E+00  2.00000E+00  1.00000E+00  0.00000E+00  0.00000E+00




                                 - - - - - - FREQUENCY - - - - - -

                                    FREQUENCY= 3.0000E+02 MHZ
                                    WAVELENGTH= 9.9933E-01 METERS




                    APPROXIMATE INTEGRATION EMPLOYED FOR SEGMENTS MORE THAN   1.000 WAVELENGTHS APART

                    THE EXTENDED THIN WIRE KERNEL WILL BE USED



                               - - - STRUCTURE IMPEDANCE LOADING - - -

                                   THIS STRUCTURE IS NOT LOADED



                                  - - - ANTENNA ENVIRONMENT - - -

                                          PERFECT GROUND



                                - - - MATRIX TIMING - - -

                        FILL=   24.600 SEC.,  FACTOR=   87.170 SEC.



                                          - - - ANTENNA INPUT PARAMETERS - - -

   TAG   SEG.    VOLTAGE (VOLTS)         CURRENT (AMPS)         IMPEDANCE (OHMS)        ADMITTANCE (MHOS)      POWER
   NO.   NO.    REAL        IMAG.       REAL        IMAG.       REAL        IMAG.       REAL        IMAG.     (WATTS)
     1     2 1.00000E+00 0.00000E+00 2.27450E-03-9.06741E-04 3.79366E+02 1.51236E+02 2.27450E-03-9.06741E-04 1.13725E-03
     3   110 1.00000E+00 0.00000E+00 2.29816E-03-9.12293E-04 3.75896E+02 1.49218E+02 2.29816E-03-9.12293E-04 1.14908E-03
     5   218 1.00000E+00 0.00000E+00 2.30406E-03-9.24925E-04 3.73782E+02 1.50049E+02 2.30406E-03-9.24925E-04 1.15203E-03
     7   326 1.00000E+00 0.00000E+00 2.28692E-03-9.20396E-04 3.76315E+02 1.51452E+02 2.28692E-03-9.20396E-04 1.14346E-03



                             - - - CURRENTS AND LOCATION - - -

                                 DISTANCES IN WAVELENGTHS


  SEG.  TAG    COORD. OF SEG. CENTER     SEG.            - - - CURRENT (AMPS) - - -
  NO.   NO.     X        Y        Z      LENGTH     REAL        IMAG.       MAG.        PHASE
     1    1   0.1854   0.0327   0.0047  0.06703   2.6398E-03 -9.0038E-04  2.7891E-03  -18.834
     2    1   0.1630   0.0941   0.0141  0.06703   2.2745E-03 -9.0674E-04  2.4486E-03  -21.735
     3    1   0.1210   0.1442   0.0234  0.06703   1.5907E-03 -1.6544E-03  2.2950E-03  -46.124
     4    1   0.0644   0.1769   0.0328  0.06703   6.9283E-04 -2.2231E-03  2.3286E-03  -72.690
     5    1   0.0000   0.1882   0.0422  0.06703  -2.7769E-04 -2.3949E-03  2.4109E-03  -96.614
     6    1  -0.0644   0.1769   0.0516  0.06703  -1.1680E-03 -2.1627E-03  2.4580E-03 -118.372
     7    1  -0.1210   0.1442   0.0609  0.06703  -1.8390E-03 -1.5775E-03  2.4229E-03 -139.378
     8    1  -0.1630   0.0941   0.0703  0.06703  -2.1882E-03 -7.4420E-04  2.3113E-03 -161.217
     9    1  -0.1854   0.0327   0.0797  0.06703  -2.1665E-03  1.9396E-04  2.1752E-03  174.884
    10    1  -0.1854  -0.0327   0.0891  0.06703  -1.7863E-03  1.0795E-03  2.0871E-03  148.855
    11    1  -0.1630  -0.0941   0.0984  0.06703  -1.1190E-03  1.7668E-03  2.0913E-03  122.347
    12    1  -0.1210  -0.1442   0.1078  0.06703  -2.8190E-04  2.1464E-03  2.1649E-03   97.482
    13    1  -0.0644  -0.1769   0.1172  0.06703   5.8212E-04  2.1623E-03  2.2393E-03   74.932
    14    1   0.0000  -0.1882   0.1266  0.06703   1.3296E-03  1.8198E-03  2.2538E-03   53.848
    15    1   0.0644  -0.1769   0.1359  0.06703   1.8403E-03  1.1843E-03  2.1884E-03   32.763
    16    1   0.1210  -0.1442   0.1453  0.06703   2.0369E-03  3.6866E-04  2.0700E-03   10.259
    17    1   0.1630  -0.0941   0.1547  0.06703   1.8959E-03 -4.8618E-04  1.9572E-03  -14.383
    18    1   0.1854  -0.0327   0.1641  0.06703   1.4501E-03 -1.2360E-03  1.9054E-03  -40.443
    19    1   0.1854   0.0327   0.1734  0.06703   7.8182E-04 -1.7577E-03  1.9238E-03  -66.021
    20    1   0.1630   0.0941   0.1828  0.06703   8.5513E-06 -1.9694E-03  1.9694E-03  -89.751
    21    1   0.1210   0.1442   0.1922  0.06703  -7.3775E-04 -1.8435E-03  1.9856E-03 -111.811
    22    1   0.0644   0.1769   0.2016  0.06703  -1.3335E-03 -1.4109E-03  1.9414E-03 -133.384
    23    1   0.0000   0.1882   0.2110  0.06703  -1.6846E-03 -7.5381E-04  1.8456E-03 -155.893
    24    1  -0.0644   0.1769   0.2203  0.06703  -1.7413E-03  1.0203E-05  1.7413E-03  179.664
    25    1  -0.1210   0.1442   0.2297  0.06703  -1.5048E-03  7.4833E-04  1.6806E-03  153.559
    26    1  -0.1630   0.0941   0.2391  0.06703  -1.0253E-03  1.3353E-03  1.6836E-03  127.519
    27    1  -0.1854   0.0327   0.2485  0.06703  -3.9319E-04  1.6750E-03  1.7205E-03  103.210
    28    1  -0.1854  -0.0327   0.2578  0.06703   2.7716E-04  1.7170E-03  1.7392E-03   80.830
    29    1  -0.1630  -0.0941   0.2672  0.06703   8.6771E-04  1.4653E-03  1.7029E-03   59.367
    30    1  -0.1210  -0.1442   0.2766  0.06703   1.2784E-03  9.7553E-04  1.6081E-03   37.346
    31    1  -0.0644  -0.1769   0.2860  0.06703   1.4454E-03  3.4321E-04  1.4856E-03   13.358
    32    1   0.0000  -0.1882   0.2953  0.06703   1.3511E-03 -3.1554E-04  1.3875E-03  -13.145
    33    1   0.0644  -0.1769   0.3047  0.06703   1.0265E-03 -8.8491E-04  1.3553E-03  -40.763
    34    1   0.1210  -0.1442   0.3141  0.06703   5.4226E-04 -1.2693E-03  1.3803E-03  -66.867
    35    1   0.1630  -0.0941   0.3235  0.06703  -6.5111E-06 -1.4094E-03  1.4094E-03  -90.265
    36    1   0.1854  -0.0327   0.3328  0.06703  -5.1924E-04 -1.2923E-03  1.3927E-03 -111.890
    37    2   0.1854   0.0327   0.3449  0.06800  -9.1021E-04 -9.4965E-04  1.3154E-03 -133.785
    38    2   0.1630   0.0941   0.3597  0.06800  -1.1158E-03 -4.5340E-04  1.2044E-03 -157.886
    39    2   0.1210   0.1442   0.3745  0.06800  -1.1058E-03  9.5168E-05  1.1099E-03  175.081
    40    2   0.0644   0.1769   0.3893  0.06800  -8.9373E-04  5.9300E-04  1.0726E-03  146.435
    41    2   0.0000   0.1882   0.4041  0.06800  -5.3003E-04  9.5242E-04  1.0900E-03  119.096
    42    2  -0.0644   0.1769   0.4189  0.06800  -9.1080E-05  1.1162E-03  1.1199E-03   94.665
    43    2  -0.1210   0.1442   0.4337  0.06800   3.3695E-04  1.0662E-03  1.1182E-03   72.462
    44    2  -0.1630   0.0941   0.4484  0.06800   6.7469E-04  8.2416E-04  1.0651E-03   50.695
    45    2  -0.1854   0.0327   0.4632  0.06800   8.6291E-04  4.4638E-04  9.7153E-04   27.352
    46    2  -0.1854  -0.0327   0.4780  0.06800   8.7202E-04  1.2832E-05  8.7212E-04    0.843
    47    2  -0.1630  -0.0941   0.4928  0.06800   7.0723E-04 -3.8817E-04  8.0675E-04  -28.761
    48    2  -0.1210  -0.1442   0.5076  0.06800   4.0764E-04 -6.7821E-04  7.9129E-04  -58.992
    49    2  -0.0644  -0.1769   0.5224  0.06800   3.8498E-05 -8.0545E-04  8.0637E-04  -87.264
    50    2   0.0000  -0.1882   0.5372  0.06800  -3.2215E-04 -7.5485E-04  8.2072E-04 -113.111
    51    2   0.0644  -0.1769   0.5520  0.06800  -5.9961E-04 -5.4904E-04  8.1301E-04 -137.521
    52    2   0.1210  -0.1442   0.5668  0.06800  -7.3860E-04 -2.4068E-04  7.7682E-04 -161.951
    53    2   0.1630  -0.0941   0.5815  0.06800  -7.1557E-04  1.0045E-04  7.2259E-04  172.009
    54    2   0.1854  -0.0327   0.5963  0.06800  -5.4359E-04  4.0170E-04  6.7591E-04  143.537
    55    2   0.1854   0.0327   0.6111  0.06800  -2.6736E-04  6.0119E-04  6.5796E-04  113.976
    56    2   0.1630   0.0941   0.6259  0.06800   4.9374E-05  6.5947E-04  6.6131E-04   85.718
    57    2   0.1210   0.1442   0.6407  0.06800   3.3892E-04  5.6710E-04  6.6065E-04   59.136
    58    2   0.0644   0.1769   0.6555  0.06800   5.4293E-04  3.4681E-04  6.4424E-04   32.569
    59    2   0.0000   0.1882   0.6703  0.06800   6.2268E-04  4.9586E-05  6.2465E-04    4.553
    60    2  -0.0644   0.1769   0.6851  0.06800   5.6607E-04 -2.5559E-04  6.2110E-04  -24.300
    61    2  -0.1210   0.1442   0.6999  0.06800   3.8998E-04 -4.9753E-04  6.3216E-04  -51.910
    62    2  -0.1630   0.0941   0.7147  0.06800   1.3581E-04 -6.1968E-04  6.3438E-04  -77.639
    63    2  -0.1854   0.0327   0.7294  0.06800  -1.4068E-04 -5.9248E-04  6.0895E-04 -103.357
    64    2  -0.1854  -0.0327   0.7442  0.06800  -3.8146E-04 -4.1881E-04  5.6649E-04 -132.328
    65    2  -0.1630  -0.0941   0.7590  0.06800  -5.3732E-04 -1.3331E-04  5.5361E-04 -166.066
    66    2  -0.1210  -0.1442   0.7738  0.06800  -5.7705E-04  2.0364E-04  6.1193E-04  160.562
    67    2  -0.0644  -0.1769   0.7886  0.06800  -4.9340E-04  5.1727E-04  7.1485E-04  133.647
    68    2   0.0000  -0.1882   0.8034  0.06800  -3.0420E-04  7.3437E-04  7.9489E-04  112.501
    69    2   0.0644  -0.1769   0.8182  0.06800  -4.8280E-05  8.0074E-04  8.0219E-04   93.450
    70    2   0.1210  -0.1442   0.8330  0.06800   2.2252E-04  6.9534E-04  7.3008E-04   72.255
    71    2   0.1630  -0.0941   0.8478  0.06800   4.5305E-04  4.3662E-04  6.2920E-04   43.942
    72    2   0.1854  -0.0327   0.8626  0.06800   5.9549E-04  7.8101E-05  6.0059E-04    7.472
    73    2   0.1854   0.0327   0.8773  0.06800   6.1961E-04 -3.0521E-04  6.9071E-04  -26.224
    74    2   0.1630   0.0941   0.8921  0.06800   5.2007E-04 -6.3512E-04  8.2088E-04  -50.688
    75    2   0.1210   0.1442   0.9069  0.06800   3.1745E-04 -8.4704E-04  9.0458E-04  -69.455
    76    2   0.0644   0.1769   0.9217  0.06800   5.2915E-05 -9.0083E-04  9.0238E-04  -86.638
    77    2   0.0000   0.1882   0.9365  0.06800  -2.2103E-04 -7.8494E-04  8.1546E-04 -105.727
    78    2  -0.0644   0.1769   0.9513  0.06800  -4.5040E-04 -5.1670E-04  6.8545E-04 -131.078
    79    2  -0.1210   0.1442   0.9661  0.06800  -5.8954E-04 -1.4069E-04  6.0610E-04 -166.578
    80    2  -0.1630   0.0941   0.9809  0.06800  -6.1036E-04  2.7676E-04  6.7017E-04  155.608
    81    2  -0.1854   0.0327   0.9957  0.06800  -5.0871E-04  6.5854E-04  8.3215E-04  127.686
    82    2  -0.1854  -0.0327   1.0104  0.06800  -3.0552E-04  9.3137E-04  9.8020E-04  108.161
    83    2  -0.1630  -0.0941   1.0252  0.06800  -4.2204E-05  1.0399E-03  1.0408E-03   92.324
    84    2  -0.1210  -0.1442   1.0400  0.06800   2.2774E-04  9.5764E-04  9.8434E-04   76.623
    85    2  -0.0644  -0.1769   1.0548  0.06800   4.4961E-04  6.9237E-04  8.2554E-04   57.001
    86    2   0.0000  -0.1882   1.0696  0.06800   5.7933E-04  2.8683E-04  6.4644E-04   26.340
    87    2   0.0644  -0.1769   1.0844  0.06800   5.9361E-04 -1.8751E-04  6.2252E-04  -17.530
    88    2   0.1210  -0.1442   1.0992  0.06800   4.9529E-04 -6.4211E-04  8.1094E-04  -52.355
    89    2   0.1630  -0.0941   1.1140  0.06800   3.1192E-04 -9.8777E-04  1.0358E-03  -72.475
    90    2   0.1854  -0.0327   1.1288  0.06800   8.8162E-05 -1.1533E-03  1.1567E-03  -85.629
    91    2   0.1854   0.0327   1.1436  0.06800  -1.2537E-04 -1.1027E-03  1.1098E-03  -96.486
    92    2   0.1630   0.0941   1.1583  0.06800  -2.8415E-04 -8.4486E-04  8.9136E-04 -108.589
    93    2   0.1210   0.1442   1.1731  0.06800  -3.5966E-04 -4.3203E-04  5.6214E-04 -129.776
    94    2   0.0644   0.1769   1.1879  0.06800  -3.4471E-04  5.3454E-05  3.4883E-04  171.185
    95    2   0.0000   0.1882   1.2027  0.06800  -2.5263E-04  5.1911E-04  5.7732E-04  115.950
    96    2  -0.0644   0.1769   1.2175  0.06800  -1.1163E-04  8.8098E-04  8.8802E-04   97.222
    97    2  -0.1210   0.1442   1.2323  0.06800   4.2714E-05  1.0772E-03  1.0781E-03   87.729
    98    2  -0.1630   0.0941   1.2471  0.06800   1.7456E-04  1.0767E-03  1.0907E-03   80.791
    99    2  -0.1854   0.0327   1.2619  0.06800   2.5415E-04  8.8323E-04  9.1906E-04   73.947
   100    2  -0.1854  -0.0327   1.2767  0.06800   2.6325E-04  5.3475E-04  5.9604E-04   63.790
   101    2  -0.1630  -0.0941   1.2914  0.06800   1.9897E-04  9.6405E-05  2.2110E-04   25.851
   102    2  -0.1210  -0.1442   1.3062  0.06800   7.4687E-05 -3.5138E-04  3.5923E-04  -78.000
   103    2  -0.0644  -0.1769   1.3210  0.06800  -8.2010E-05 -7.2772E-04  7.3233E-04  -96.430
   104    2   0.0000  -0.1882   1.3358  0.06800  -2.3393E-04 -9.6630E-04  9.9421E-04 -103.609
   105    2   0.0644  -0.1769   1.3506  0.06800  -3.4118E-04 -1.0275E-03  1.0826E-03 -108.369
   106    2   0.1210  -0.1442   1.3654  0.06800  -3.6953E-04 -9.0468E-04  9.7724E-04 -112.218
   107    2   0.1630  -0.0941   1.3802  0.06800  -2.9891E-04 -6.2385E-04  6.9176E-04 -115.601
   108    2   0.1854  -0.0327   1.3950  0.06800  -1.2579E-04 -2.3017E-04  2.6230E-04 -118.658
   109    3   1.3862   0.0327   0.0047  0.06703   2.6679E-03 -9.0714E-04  2.8179E-03  -18.779
   110    3   1.3638   0.0941   0.0141  0.06703   2.2982E-03 -9.1229E-04  2.4726E-03  -21.651
   111    3   1.3218   0.1442   0.0234  0.06703   1.6066E-03 -1.6574E-03  2.3082E-03  -45.892
   112    3   1.2652   0.1769   0.0328  0.06703   6.9967E-04 -2.2222E-03  2.3297E-03  -72.523
   113    3   1.2008   0.1882   0.0422  0.06703  -2.7921E-04 -2.3885E-03  2.4047E-03  -96.668
   114    3   1.1364   0.1769   0.0516  0.06703  -1.1758E-03 -2.1496E-03  2.4502E-03 -118.679
   115    3   1.0798   0.1442   0.0609  0.06703  -1.8509E-03 -1.5572E-03  2.4188E-03 -139.926
   116    3   1.0378   0.0941   0.0703  0.06703  -2.2025E-03 -7.1761E-04  2.3165E-03 -161.953
   117    3   1.0155   0.0327   0.0797  0.06703  -2.1823E-03  2.2410E-04  2.1938E-03  174.137
   118    3   1.0155  -0.0327   0.0891  0.06703  -1.8029E-03  1.1091E-03  2.1168E-03  148.401
   119    3   1.0378  -0.0941   0.0984  0.06703  -1.1354E-03  1.7915E-03  2.1210E-03  122.365
   120    3   1.0798  -0.1442   0.1078  0.06703  -2.9651E-04  2.1624E-03  2.1826E-03   97.808
   121    3   1.1364  -0.1769   0.1172  0.06703   5.7118E-04  2.1670E-03  2.2410E-03   75.234
   122    3   1.2008  -0.1882   0.1266  0.06703   1.3235E-03  1.8133E-03  2.2450E-03   53.875
   123    3   1.2652  -0.1769   0.1359  0.06703   1.8389E-03  1.1687E-03  2.1789E-03   32.437
   124    3   1.3218  -0.1442   0.1453  0.06703   2.0385E-03  3.4781E-04  2.0679E-03    9.683
   125    3   1.3638  -0.0941   0.1547  0.06703   1.8979E-03 -5.0817E-04  1.9648E-03  -14.989
   126    3   1.3862  -0.0327   0.1641  0.06703   1.4509E-03 -1.2555E-03  1.9187E-03  -40.869
   127    3   1.3862   0.0327   0.1734  0.06703   7.8183E-04 -1.7717E-03  1.9365E-03  -66.188
   128    3   1.3638   0.0941   0.1828  0.06703   1.0344E-05 -1.9757E-03  1.9757E-03  -89.700
   129    3   1.3218   0.1442   0.1922  0.06703  -7.2964E-04 -1.8411E-03  1.9804E-03 -111.619
   130    3   1.2652   0.1769   0.2016  0.06703  -1.3137E-03 -1.3999E-03  1.9198E-03 -133.182
   131    3   1.2008   0.1882   0.2110  0.06703  -1.6490E-03 -7.3406E-04  1.8050E-03 -156.004
   132    3   1.1364   0.1769   0.2203  0.06703  -1.6895E-03  3.9290E-05  1.6900E-03  178.668
   133    3   1.0798   0.1442   0.2297  0.06703  -1.4422E-03  7.8700E-04  1.6430E-03  151.379
   134    3   1.0378   0.0941   0.2391  0.06703  -9.6306E-04  1.3816E-03  1.6841E-03  124.879
   135    3   1.0155   0.0327   0.2485  0.06703  -3.4509E-04  1.7237E-03  1.7579E-03  101.322
   136    3   1.0155  -0.0327   0.2578  0.06703   2.9877E-04  1.7605E-03  1.7857E-03   80.368
   137    3   1.0378  -0.0941   0.2672  0.06703   8.5586E-04  1.4956E-03  1.7232E-03   60.220
   138    3   1.0798  -0.1442   0.2766  0.06703   1.2334E-03  9.8617E-04  1.5792E-03   38.644
   139    3   1.1364  -0.1769   0.2860  0.06703   1.3740E-03  3.3090E-04  1.4133E-03   13.541
   140    3   1.2008  -0.1882   0.2953  0.06703   1.2646E-03 -3.4922E-04  1.3120E-03  -15.437
   141    3   1.2652  -0.1769   0.3047  0.06703   9.3758E-04 -9.3356E-04  1.3231E-03  -44.877
   142    3   1.3218  -0.1442   0.3141  0.06703   4.6281E-04 -1.3237E-03  1.4023E-03  -70.729
   143    3   1.3638  -0.0941   0.3235  0.06703  -6.6224E-05 -1.4605E-03  1.4620E-03  -92.596
   144    3   1.3862  -0.0327   0.3328  0.06703  -5.5048E-04 -1.3332E-03  1.4424E-03 -112.436
   145    4   1.3862   0.0327   0.3449  0.06800  -9.0565E-04 -9.7619E-04  1.3316E-03 -132.853
   146    4   1.3638   0.0941   0.3597  0.06800  -1.0707E-03 -4.6432E-04  1.1671E-03 -156.556
   147    4   1.3218   0.1442   0.3745  0.06800  -1.0194E-03  9.8323E-05  1.0242E-03  174.491
   148    4   1.2652   0.1769   0.3893  0.06800  -7.6936E-04  6.0769E-04  9.8041E-04  141.696
   149    4   1.2008   0.1882   0.4041  0.06800  -3.7570E-04  9.7748E-04  1.0472E-03  111.024
   150    4   1.1364   0.1769   0.4189  0.06800   7.9395E-05  1.1526E-03  1.1553E-03   86.059
   151    4   1.0798   0.1442   0.4337  0.06800   5.0344E-04  1.1146E-03  1.2230E-03   65.691
   152    4   1.0378   0.0941   0.4484  0.06800   8.1273E-04  8.8140E-04  1.1989E-03   47.321
   153    4   1.0155   0.0327   0.4632  0.06800   9.4897E-04  5.0406E-04  1.0745E-03   27.976
   154    4   1.0155  -0.0327   0.4780  0.06800   8.9008E-04  5.8816E-05  8.9202E-04    3.781
   155    4   1.0378  -0.0941   0.4928  0.06800   6.5332E-04 -3.6635E-04  7.4902E-04  -29.281
   156    4   1.0798  -0.1442   0.5076  0.06800   2.9073E-04 -6.8950E-04  7.4828E-04  -67.137
   157    4   1.1364  -0.1769   0.5224  0.06800  -1.2189E-04 -8.5169E-04  8.6037E-04  -98.144
   158    4   1.2008  -0.1882   0.5372  0.06800  -5.0006E-04 -8.2883E-04  9.6800E-04 -121.104
   159    4   1.2652  -0.1769   0.5520  0.06800  -7.6749E-04 -6.3611E-04  9.9683E-04 -140.348
   160    4   1.3218  -0.1442   0.5668  0.06800  -8.7178E-04 -3.2416E-04  9.3010E-04 -159.603
   161    4   1.3638  -0.0941   0.5815  0.06800  -7.9540E-04  3.2858E-05  7.9607E-04  177.634
   162    4   1.3862  -0.0327   0.5963  0.06800  -5.5878E-04  3.5410E-04  6.6153E-04  147.637
   163    4   1.3862   0.0327   0.6111  0.06800  -2.1472E-04  5.6964E-04  6.0876E-04  110.653
   164    4   1.3638   0.0941   0.6259  0.06800   1.6453E-04  6.3508E-04  6.5604E-04   75.476
   165    4   1.3218   0.1442   0.6407  0.06800   5.0376E-04  5.4099E-04  7.3922E-04   47.041
   166    4   1.2652   0.1769   0.6555  0.06800   7.4039E-04  3.1521E-04  8.0470E-04   23.061
   167    4   1.2008   0.1882   0.6703  0.06800   8.3507E-04  1.6394E-05  8.3524E-04    1.125
   168    4   1.1364   0.1769   0.6851  0.06800   7.7617E-04 -2.8125E-04  8.2555E-04  -19.919
   169    4   1.0798   0.1442   0.6999  0.06800   5.7962E-04 -5.0751E-04  7.7040E-04  -41.205
   170    4   1.0378   0.0941   0.7147  0.06800   2.8527E-04 -6.1241E-04  6.7559E-04  -65.023
   171    4   1.0155   0.0327   0.7294  0.06800  -5.0018E-05 -5.7458E-04  5.7675E-04  -94.975
   172    4   1.0155  -0.0327   0.7442  0.06800  -3.6250E-04 -4.0264E-04  5.4178E-04 -131.997
   173    4   1.0378  -0.0941   0.7590  0.06800  -5.9374E-04 -1.3235E-04  6.0831E-04 -167.434
   174    4   1.0798  -0.1442   0.7738  0.06800  -7.0215E-04  1.8006E-04  7.2487E-04  165.617
   175    4   1.1364  -0.1769   0.7886  0.06800  -6.7047E-04  4.6841E-04  8.1788E-04  145.061
   176    4   1.2008  -0.1882   0.8034  0.06800  -5.0811E-04  6.6906E-04  8.4013E-04  127.215
   177    4   1.2652  -0.1769   0.8182  0.06800  -2.4916E-04  7.3348E-04  7.7464E-04  108.763
   178    4   1.3218  -0.1442   0.8330  0.06800   5.3434E-05  6.3905E-04  6.4128E-04   85.220
   179    4   1.3638  -0.0941   0.8478  0.06800   3.3761E-04  3.9600E-04  5.2038E-04   49.551
   180    4   1.3862  -0.0327   0.8626  0.06800   5.4488E-04  4.7349E-05  5.4694E-04    4.966
   181    4   1.3862   0.0327   0.8773  0.06800   6.3331E-04 -3.3933E-04  7.1849E-04  -28.182
   182    4   1.3638   0.0941   0.8921  0.06800   5.8746E-04 -6.8639E-04  9.0346E-04  -49.441
   183    4   1.3218   0.1442   0.9069  0.06800   4.2272E-04 -9.2240E-04  1.0146E-03  -65.379
   184    4   1.2652   0.1769   0.9217  0.06800   1.8169E-04 -9.9606E-04  1.0125E-03  -79.662
   185    4   1.2008   0.1882   0.9365  0.06800  -7.7466E-05 -8.8614E-04  8.8952E-04  -94.996
   186    4   1.1364   0.1769   0.9513  0.06800  -2.9721E-04 -6.0680E-04  6.7568E-04 -116.096
   187    4   1.0798   0.1442   0.9661  0.06800  -4.3469E-04 -2.0667E-04  4.8132E-04 -154.572
   188    4   1.0378   0.0941   0.9809  0.06800  -4.6917E-04  2.4005E-04  5.2701E-04  152.904
   189    4   1.0155   0.0327   0.9957  0.06800  -4.0267E-04  6.4880E-04  7.6360E-04  121.826
   190    4   1.0155  -0.0327   1.0104  0.06800  -2.5654E-04  9.4145E-04  9.7578E-04  105.243
   191    4   1.0378  -0.0941   1.0252  0.06800  -6.6172E-05  1.0609E-03  1.0630E-03   93.569
   192    4   1.0798  -0.1442   1.0400  0.06800   1.2603E-04  9.8191E-04  9.8997E-04   82.686
   193    4   1.1364  -0.1769   1.0548  0.06800   2.7950E-04  7.1593E-04  7.6855E-04   68.674
   194    4   1.2008  -0.1882   1.0696  0.06800   3.6412E-04  3.0919E-04  4.7768E-04   40.336
   195    4   1.2652  -0.1769   1.0844  0.06800   3.6565E-04 -1.6590E-04  4.0152E-04  -24.405
   196    4   1.3218  -0.1442   1.0992  0.06800   2.8741E-04 -6.2315E-04  6.8624E-04  -65.240
   197    4   1.3638  -0.0941   1.1140  0.06800   1.4901E-04 -9.7721E-04  9.8850E-04  -81.330
   198    4   1.3862  -0.0327   1.1288  0.06800  -1.7528E-05 -1.1594E-03  1.1595E-03  -90.866
   199    4   1.3862   0.0327   1.1436  0.06800  -1.7410E-04 -1.1323E-03  1.1456E-03  -98.741
   200    4   1.3638   0.0941   1.1583  0.06800  -2.8436E-04 -8.9963E-04  9.4350E-04 -107.541
   201    4   1.3218   0.1442   1.1731  0.06800  -3.2142E-04 -5.0629E-04  5.9970E-04 -122.410
   202    4   1.2652   0.1769   1.1879  0.06800  -2.7440E-04 -2.9075E-05  2.7594E-04 -173.952
   203    4   1.2008   0.1882   1.2027  0.06800  -1.5274E-04  4.4074E-04  4.6646E-04  109.113
   204    4   1.1364   0.1769   1.2175  0.06800   1.3638E-05  8.1656E-04  8.1667E-04   89.043
   205    4   1.0798   0.1442   1.2323  0.06800   1.8088E-04  1.0329E-03  1.0486E-03   80.067
   206    4   1.0378   0.0941   1.2471  0.06800   3.0351E-04  1.0565E-03  1.0992E-03   73.972
   207    4   1.0155   0.0327   1.2619  0.06800   3.4745E-04  8.9060E-04  9.5598E-04   68.687
   208    4   1.0155  -0.0327   1.2767  0.06800   2.9856E-04  5.7174E-04  6.4501E-04   62.427
   209    4   1.0378  -0.0941   1.2914  0.06800   1.6480E-04  1.6177E-04  2.3093E-04   44.468
   210    4   1.0798  -0.1442   1.3062  0.06800  -2.6357E-05 -2.6354E-04  2.6486E-04  -95.711
   211    4   1.1364  -0.1769   1.3210  0.06800  -2.3349E-04 -6.2759E-04  6.6962E-04 -110.408
   212    4   1.2008  -0.1882   1.3358  0.06800  -4.0921E-04 -8.6657E-04  9.5833E-04 -115.277
   213    4   1.2652  -0.1769   1.3506  0.06800  -5.0997E-04 -9.4082E-04  1.0701E-03 -118.460
   214    4   1.3218  -0.1442   1.3654  0.06800  -5.0556E-04 -8.4089E-04  9.8117E-04 -121.015
   215    4   1.3638  -0.0941   1.3802  0.06800  -3.8529E-04 -5.8734E-04  7.0244E-04 -123.264
   216    4   1.3862  -0.0327   1.3950  0.06800  -1.5548E-04 -2.1931E-04  2.6884E-04 -125.335
   217    5   0.1854   1.2335   0.0047  0.06703   2.6736E-03 -9.2200E-04  2.8282E-03  -19.027
   218    5   0.1630   1.2949   0.0141  0.06703   2.3041E-03 -9.2493E-04  2.4828E-03  -21.872
   219    5   0.1210   1.3450   0.0234  0.06703   1.6123E-03 -1.6660E-03  2.3184E-03  -45.937
   220    5   0.0644   1.3777   0.0328  0.06703   7.0434E-04 -2.2261E-03  2.3348E-03  -72.442
   221    5   0.0000   1.3890   0.0422  0.06703  -2.7686E-04 -2.3890E-03  2.4049E-03  -96.611
   222    5  -0.0644   1.3777   0.0516  0.06703  -1.1766E-03 -2.1499E-03  2.4508E-03 -118.691
   223    5  -0.1210   1.3450   0.0609  0.06703  -1.8543E-03 -1.5612E-03  2.4240E-03 -139.905
   224    5  -0.1630   1.2949   0.0703  0.06703  -2.2068E-03 -7.2857E-04  2.3239E-03 -161.729
   225    5  -0.1854   1.2335   0.0797  0.06703  -2.1848E-03  2.0580E-04  2.1945E-03  174.619
   226    5  -0.1854   1.1681   0.0891  0.06703  -1.8014E-03  1.0861E-03  2.1035E-03  148.912
   227    5  -0.1630   1.1067   0.0984  0.06703  -1.1288E-03  1.7687E-03  2.0982E-03  122.546
   228    5  -0.1210   1.0566   0.1078  0.06703  -2.8591E-04  2.1446E-03  2.1635E-03   97.594
   229    5  -0.0644   1.0239   0.1172  0.06703   5.8250E-04  2.1570E-03  2.2343E-03   74.888
   230    5   0.0000   1.0126   0.1266  0.06703   1.3316E-03  1.8097E-03  2.2468E-03   53.655
   231    5   0.0644   1.0239   0.1359  0.06703   1.8409E-03  1.1662E-03  2.1792E-03   32.353
   232    5   0.1210   1.0566   0.1453  0.06703   2.0343E-03  3.3933E-04  2.0624E-03    9.470
   233    5   0.1630   1.1067   0.1547  0.06703   1.8901E-03 -5.2758E-04  1.9624E-03  -15.596
   234    5   0.1854   1.1681   0.1641  0.06703   1.4440E-03 -1.2860E-03  1.9336E-03  -41.689
   235    5   0.1854   1.2335   0.1734  0.06703   7.8048E-04 -1.8086E-03  1.9698E-03  -66.657
   236    5   0.1630   1.2949   0.1828  0.06703   1.7796E-05 -2.0112E-03  2.0112E-03  -89.493
   237    5   0.1210   1.3450   0.1922  0.06703  -7.1359E-04 -1.8679E-03  1.9995E-03 -110.909
   238    5   0.0644   1.3777   0.2016  0.06703  -1.2931E-03 -1.4141E-03  1.9162E-03 -132.440
   239    5   0.0000   1.3890   0.2110  0.06703  -1.6300E-03 -7.3809E-04  1.7894E-03 -155.639
   240    5  -0.0644   1.3777   0.2203  0.06703  -1.6777E-03  3.7223E-05  1.6781E-03  178.729
   241    5  -0.1210   1.3450   0.2297  0.06703  -1.4402E-03  7.7608E-04  1.6360E-03  151.681
   242    5  -0.1630   1.2949   0.2391  0.06703  -9.6991E-04  1.3540E-03  1.6655E-03  125.615
   243    5  -0.1854   1.2335   0.2485  0.06703  -3.5722E-04  1.6789E-03  1.7165E-03  102.011
   244    5  -0.1854   1.1681   0.2578  0.06703   2.8598E-04  1.7062E-03  1.7300E-03   80.485
   245    5  -0.1630   1.1067   0.2672  0.06703   8.4601E-04  1.4440E-03  1.6736E-03   59.635
   246    5  -0.1210   1.0566   0.2766  0.06703   1.2272E-03  9.4938E-04  1.5516E-03   37.725
   247    5  -0.0644   1.0239   0.2860  0.06703   1.3691E-03  3.1548E-04  1.4050E-03   12.976
   248    5   0.0000   1.0126   0.2953  0.06703   1.2570E-03 -3.4602E-04  1.3038E-03  -15.390
   249    5   0.0644   1.0239   0.3047  0.06703   9.2440E-04 -9.2344E-04  1.3066E-03  -44.970
   250    5   0.1210   1.0566   0.3141  0.06703   4.4411E-04 -1.3220E-03  1.3946E-03  -71.431
   251    5   0.1630   1.1067   0.3235  0.06703  -8.7007E-05 -1.4787E-03  1.4813E-03  -93.367
   252    5   0.1854   1.1681   0.3328  0.06703  -5.6742E-04 -1.3734E-03  1.4860E-03 -112.447
   253    6   0.1854   1.2335   0.3449  0.06800  -9.1197E-04 -1.0309E-03  1.3764E-03 -131.496
   254    6   0.1630   1.2949   0.3597  0.06800  -1.0614E-03 -5.2046E-04  1.1821E-03 -153.878
   255    6   0.1210   1.3450   0.3745  0.06800  -9.9465E-04  5.4380E-05  9.9613E-04  176.871
   256    6   0.0644   1.3777   0.3893  0.06800  -7.3602E-04  5.8393E-04  9.3952E-04  141.573
   257    6   0.0000   1.3890   0.4041  0.06800  -3.4570E-04  9.7186E-04  1.0315E-03  109.581
   258    6  -0.0644   1.3777   0.4189  0.06800   9.3247E-05  1.1530E-03  1.1568E-03   85.376
   259    6  -0.1210   1.3450   0.4337  0.06800   4.9189E-04  1.1048E-03  1.2093E-03   66.000
   260    6  -0.1630   1.2949   0.4484  0.06800   7.7319E-04  8.5000E-04  1.1491E-03   47.709
   261    6  -0.1854   1.2335   0.4632  0.06800   8.8658E-04  4.5069E-04  9.9456E-04   26.946
   262    6  -0.1854   1.1681   0.4780  0.06800   8.1635E-04 -5.6171E-06  8.1637E-04   -0.394
   263    6  -0.1630   1.1067   0.4928  0.06800   5.8263E-04 -4.2454E-04  7.2090E-04  -36.079
   264    6  -0.1210   1.0566   0.5076  0.06800   2.3551E-04 -7.2496E-04  7.6225E-04  -72.003
   265    6  -0.0644   1.0239   0.5224  0.06800  -1.5552E-04 -8.5609E-04  8.7011E-04 -100.296
   266    6   0.0000   1.0126   0.5372  0.06800  -5.1425E-04 -8.0684E-04  9.5679E-04 -122.512
   267    6   0.0644   1.0239   0.5520  0.06800  -7.7128E-04 -6.0401E-04  9.7965E-04 -141.935
   268    6   0.1210   1.0566   0.5668  0.06800  -8.7696E-04 -3.0166E-04  9.2740E-04 -161.018
   269    6   0.1630   1.1067   0.5815  0.06800  -8.1127E-04  3.2977E-05  8.1194E-04  177.672
   270    6   0.1854   1.1681   0.5963  0.06800  -5.8806E-04  3.3170E-04  6.7516E-04  150.575
   271    6   0.1854   1.2335   0.6111  0.06800  -2.5259E-04  5.3583E-04  5.9238E-04  115.239
   272    6   0.1630   1.2949   0.6259  0.06800   1.2751E-04  6.0637E-04  6.1963E-04   78.124
   273    6   0.1210   1.3450   0.6407  0.06800   4.7603E-04  5.3233E-04  7.1413E-04   48.195
   274    6   0.0644   1.3777   0.6555  0.06800   7.2364E-04  3.3376E-04  7.9690E-04   24.760
   275    6   0.0000   1.3890   0.6703  0.06800   8.2155E-04  5.7850E-05  8.2358E-04    4.028
   276    6  -0.0644   1.3777   0.6851  0.06800   7.5136E-04 -2.3086E-04  7.8603E-04  -17.080
   277    6  -0.1210   1.3450   0.6999  0.06800   5.2921E-04 -4.6448E-04  7.0414E-04  -41.273
   278    6  -0.1630   1.2949   0.7147  0.06800   2.0291E-04 -5.8715E-04  6.2122E-04  -70.935
   279    6  -0.1854   1.2335   0.7294  0.06800  -1.5817E-04 -5.6779E-04  5.8941E-04 -105.566
   280    6  -0.1854   1.1681   0.7442  0.06800  -4.7842E-04 -4.0706E-04  6.2816E-04 -139.608
   281    6  -0.1630   1.1067   0.7590  0.06800  -6.9316E-04 -1.3701E-04  7.0657E-04 -168.819
   282    6  -0.1210   1.0566   0.7738  0.06800  -7.6326E-04  1.8527E-04  7.8542E-04  166.357
   283    6  -0.0644   1.0239   0.7886  0.06800  -6.8309E-04  4.8866E-04  8.3988E-04  144.421
   284    6   0.0000   1.0126   0.8034  0.06800  -4.7913E-04  7.0260E-04  8.5042E-04  124.292
   285    6   0.0644   1.0239   0.8182  0.06800  -2.0051E-04  7.7369E-04  7.9925E-04  104.530
   286    6   0.1210   1.0566   0.8330  0.06800   9.3942E-05  6.7996E-04  6.8641E-04   82.134
   287    6   0.1630   1.1067   0.8478  0.06800   3.4788E-04  4.3676E-04  5.5837E-04   51.463
   288    6   0.1854   1.1681   0.8626  0.06800   5.1656E-04  9.2235E-05  5.2473E-04   10.124
   289    6   0.1854   1.2335   0.8773  0.06800   5.7324E-04 -2.8454E-04  6.3997E-04  -26.399
   290    6   0.1630   1.2949   0.8921  0.06800   5.1297E-04 -6.1805E-04  8.0320E-04  -50.308
   291    6   0.1210   1.3450   0.9069  0.06800   3.5305E-04 -8.4077E-04  9.1188E-04  -67.222
   292    6   0.0644   1.3777   0.9217  0.06800   1.2892E-04 -9.0563E-04  9.1476E-04  -81.898
   293    6   0.0000   1.3890   0.9365  0.06800  -1.1332E-04 -7.9455E-04  8.0259E-04  -98.117
   294    6  -0.0644   1.3777   0.9513  0.06800  -3.2557E-04 -5.2192E-04  6.1515E-04 -121.956
   295    6  -0.1210   1.3450   0.9661  0.06800  -4.6616E-04 -1.3327E-04  4.8484E-04 -164.045
   296    6  -0.1630   1.2949   0.9809  0.06800  -5.0742E-04  3.0130E-04  5.9013E-04  149.299
   297    6  -0.1854   1.2335   0.9957  0.06800  -4.4148E-04  6.9924E-04  8.2695E-04  122.267
   298    6  -0.1854   1.1681   1.0104  0.06800  -2.8260E-04  9.8201E-04  1.0219E-03  106.055
   299    6  -0.1630   1.1067   1.0252  0.06800  -6.5117E-05  1.0920E-03  1.0939E-03   93.413
   300    6  -0.1210   1.0566   1.0400  0.06800   1.6274E-04  1.0051E-03  1.0182E-03   80.803
   301    6  -0.0644   1.0239   1.0548  0.06800   3.4893E-04  7.3547E-04  8.1404E-04   64.619
   302    6   0.0000   1.0126   1.0696  0.06800   4.5066E-04  3.3189E-04  5.5968E-04   36.370
   303    6   0.0644   1.0239   1.0844  0.06800   4.4643E-04 -1.3203E-04  4.6554E-04  -16.475
   304    6   0.1210   1.0566   1.0992  0.06800   3.4208E-04 -5.7125E-04  6.6584E-04  -59.086
   305    6   0.1630   1.1067   1.1140  0.06800   1.6779E-04 -9.0488E-04  9.2031E-04  -79.495
   306    6   0.1854   1.1681   1.1288  0.06800  -3.1609E-05 -1.0713E-03  1.0718E-03  -91.690
   307    6   0.1854   1.2335   1.1436  0.06800  -2.0829E-04 -1.0397E-03  1.0603E-03 -101.329
   308    6   0.1630   1.2949   1.1583  0.06800  -3.2165E-04 -8.1601E-04  8.7712E-04 -111.513
   309    6   0.1210   1.3450   1.1731  0.06800  -3.4641E-04 -4.4230E-04  5.6181E-04 -128.068
   310    6   0.0644   1.3777   1.1879  0.06800  -2.7800E-04  1.1499E-05  2.7824E-04  177.631
   311    6   0.0000   1.3890   1.2027  0.06800  -1.3358E-04  4.6152E-04  4.8046E-04  106.142
   312    6  -0.0644   1.3777   1.2175  0.06800   5.2294E-05  8.2617E-04  8.2782E-04   86.378
   313    6  -0.1210   1.3450   1.2323  0.06800   2.3563E-04  1.0406E-03  1.0670E-03   77.242
   314    6  -0.1630   1.2949   1.2471  0.06800   3.7255E-04  1.0676E-03  1.1308E-03   70.764
   315    6  -0.1854   1.2335   1.2619  0.06800   4.2867E-04  9.0400E-04  1.0005E-03   64.630
   316    6  -0.1854   1.1681   1.2767  0.06800   3.8699E-04  5.8168E-04  6.9865E-04   56.365
   317    6  -0.1630   1.1067   1.2914  0.06800   2.5243E-04  1.6294E-04  3.0045E-04   32.842
   318    6  -0.1210   1.0566   1.3062  0.06800   5.1448E-05 -2.7117E-04  2.7601E-04  -79.257
   319    6  -0.0644   1.0239   1.3210  0.06800  -1.7321E-04 -6.3753E-04  6.6064E-04 -105.200
   320    6   0.0000   1.0126   1.3358  0.06800  -3.7078E-04 -8.6906E-04  9.4485E-04 -113.105
   321    6   0.0644   1.0239   1.3506  0.06800  -4.9261E-04 -9.2873E-04  1.0513E-03 -117.942
   322    6   0.1210   1.0566   1.3654  0.06800  -5.0316E-04 -8.1514E-04  9.5793E-04 -121.686
   323    6   0.1630   1.1067   1.3802  0.06800  -3.8911E-04 -5.5851E-04  6.8069E-04 -124.865
   324    6   0.1854   1.1681   1.3950  0.06800  -1.5802E-04 -2.0469E-04  2.5859E-04 -127.668
[...]
  -42.00    45.00     -17.00  -23.28  -16.08    0.24184   -22.98  RIGHT     7.40164E-02   114.74    3.59451E-02   -29.71
  -40.00    45.00     -18.95  -28.01  -18.44    0.06892   -19.07  RIGHT     5.91385E-02   122.17    2.08441E-02   -45.20
  -38.00    45.00     -21.59  -30.57  -21.07    0.13746   -18.17  LEFT      4.36437E-02   132.16    1.55173E-02   -73.14
  -36.00    45.00     -23.98  -31.23  -23.23    0.21349   -20.77  LEFT      3.31591E-02   142.32    1.43833E-02   -71.69
  -34.00    45.00     -23.67  -29.99  -22.76    0.14906   -24.74  RIGHT     3.43579E-02   145.80    1.65975E-02   -12.35
  -32.00    45.00     -19.49  -21.44  -17.34    0.64318   -28.96  RIGHT     5.55780E-02   145.57    4.44295E-02    34.45
  -30.00    45.00     -14.00  -14.42  -11.19    0.90648   -30.12  RIGHT     1.04591E-01   149.89    9.96270E-02    55.01
  -28.00    45.00      -8.96   -9.14   -6.04    0.95944    29.54  RIGHT     1.86824E-01   157.70    1.82893E-01    69.73
  -26.00    45.00      -4.68   -4.95   -1.81    0.90014    36.28  RIGHT     3.05748E-01   167.09    2.96286E-01    82.83
  -24.00    45.00      -1.09   -1.50    1.72    0.86087    35.60  RIGHT     4.62476E-01   177.23    4.40826E-01    95.33
  -22.00    45.00       1.94    1.40    4.69    0.83324    34.91  RIGHT     6.55474E-01  -172.21    6.15855E-01   107.56
  -20.00    45.00       4.51    3.87    7.21    0.81319    34.56  RIGHT     8.80542E-01  -161.38    8.18739E-01   119.63
  -18.00    45.00       6.68    5.99    9.36    0.79858    34.51  RIGHT     1.13103E+00  -150.37    1.04474E+00   131.59
  -16.00    45.00       8.52    7.80   11.19    0.78800    34.65  RIGHT     1.39825E+00  -139.25    1.28708E+00   143.43
  -14.00    45.00      10.08    9.35   12.74    0.78044    34.91  RIGHT     1.67192E+00  -128.05    1.53718E+00   155.18
  -12.00    45.00      11.37   10.64   14.03    0.77510    35.23  RIGHT     1.94084E+00  -116.83    1.78513E+00   166.81
  -10.00    45.00      12.43   11.72   15.10    0.77136    35.57  RIGHT     2.19346E+00  -105.61    2.02020E+00   178.34
   -8.00    45.00      13.28   12.58   15.96    0.76873    35.90  RIGHT     2.41858E+00   -94.44    2.23157E+00  -170.25
   -6.00    45.00      13.93   13.25   16.61    0.76680    36.20  RIGHT     2.60593E+00   -83.33    2.40901E+00  -158.96
   -4.00    45.00      14.39   13.72   17.08    0.76524    36.47  RIGHT     2.74681E+00   -72.32    2.54364E+00  -147.80
   -2.00    45.00      14.66   14.01   17.36    0.76381    36.68  RIGHT     2.83455E+00   -61.43    2.62849E+00  -136.78
    0.00    45.00      14.75   14.11   17.45    0.76234    36.84  RIGHT     2.86495E+00   -50.67    2.65907E+00  -125.90
    2.00    45.00      14.67   14.02   17.37    0.76070    36.94  RIGHT     2.83651E+00   -40.07    2.63364E+00  -115.17
    4.00    45.00      14.40   13.75   17.10    0.75886    36.99  RIGHT     2.75055E+00   -29.64    2.55341E+00  -104.60
    6.00    45.00      13.95   13.30   16.64    0.75681    37.00  RIGHT     2.61114E+00   -19.38    2.42238E+00   -94.20
    8.00    45.00      13.30   12.64   16.00    0.75464    36.96  RIGHT     2.42488E+00    -9.31    2.24717E+00   -83.98
   10.00    45.00      12.46   11.79   15.15    0.75247    36.90  RIGHT     2.20049E+00     0.58    2.03645E+00   -73.94
   12.00    45.00      11.40   10.72   14.09    0.75052    36.81  RIGHT     1.94831E+00    10.29    1.80044E+00   -64.11
   14.00    45.00      10.12    9.42   12.79    0.74907    36.72  RIGHT     1.67969E+00    19.82    1.55014E+00   -54.49
   16.00    45.00       8.57    7.87   11.24    0.74851    36.65  RIGHT     1.40629E+00    29.18    1.29664E+00   -45.11
   18.00    45.00       6.74    6.04    9.42    0.74935    36.60  RIGHT     1.13940E+00    38.39    1.05035E+00   -35.96
   20.00    45.00       4.59    3.89    7.27    0.75231    36.57  RIGHT     8.89259E-01    47.47    8.20411E-01   -27.09
   22.00    45.00       2.06    1.38    4.74    0.75841    36.53  RIGHT     6.64458E-01    56.48    6.14149E-01   -18.53
   24.00    45.00      -0.92   -1.58    1.77    0.76930    36.34  RIGHT     4.71460E-01    65.47    4.36743E-01   -10.32
   26.00    45.00      -4.44   -5.11   -1.75    0.78794    35.46  RIGHT     3.14251E-01    74.59    2.91079E-01    -2.60
   28.00    45.00      -8.62   -9.39   -5.98    0.81919    31.74  RIGHT     1.94202E-01    84.16    1.77821E-01     4.35
   30.00    45.00     -13.55  -14.77  -11.11    0.84976    14.98  RIGHT     1.10148E-01    94.98    9.56886E-02     9.65
   32.00    45.00     -19.01  -21.92  -17.21    0.68938   -12.44  RIGHT     5.87461E-02   108.88    4.20368E-02     9.79
   34.00    45.00     -23.52  -31.03  -22.81    0.23862   -19.23  RIGHT     3.49415E-02   127.49    1.47169E-02   -13.38
   36.00    45.00     -24.41  -33.24  -23.88    0.09512   -19.26  LEFT      3.15456E-02   143.10    1.14167E-02   -54.03
   38.00    45.00     -22.21  -31.63  -21.74    0.00833   -18.68  LEFT      4.06273E-02   150.37    1.37363E-02   -31.20
   40.00    45.00     -19.38  -27.00  -18.69    0.19860   -20.14  RIGHT     5.62985E-02   156.65    2.34169E-02     9.25
   42.00    45.00     -17.03  -21.91  -15.81    0.35643   -24.46  RIGHT     7.37556E-02   165.21    4.20679E-02    32.51
   44.00    45.00     -15.33  -18.08  -13.48    0.43949   -31.52  RIGHT     8.97138E-02   176.20    6.53493E-02    46.92
   46.00    45.00     -14.13  -15.26  -11.65    0.45091   -39.36  RIGHT     1.03025E-01  -170.67    9.04352E-02    58.42
   48.00    45.00     -13.21  -13.11  -10.15    0.41568   -45.48  RIGHT     1.14476E-01  -155.96    1.15838E-01    69.19
   50.00    45.00     -12.40  -11.40   -8.86    0.36835   -49.34  RIGHT     1.25713E-01  -140.65    1.41073E-01    80.12
   52.00    45.00     -11.61   -9.96   -7.70    0.33362   -51.80  RIGHT     1.37681E-01  -126.11    1.66528E-01    91.57
   54.00    45.00     -10.89   -8.67   -6.63    0.32244   -53.99  RIGHT     1.49644E-01  -113.52    1.93282E-01   103.59
   56.00    45.00     -10.33   -7.43   -5.63    0.33450   -56.88  RIGHT     1.59540E-01  -103.52    2.22762E-01   115.94
   58.00    45.00     -10.03   -6.22   -4.71    0.36058   -61.22  RIGHT     1.65153E-01   -96.23    2.56195E-01   128.25
   60.00    45.00     -10.03   -5.02   -3.83    0.38445   -67.24  RIGHT     1.65176E-01   -91.57    2.94046E-01   140.10
   62.00    45.00     -10.33   -3.87   -2.99    0.38830   -74.39  RIGHT     1.59649E-01   -89.28    3.35660E-01   151.17
   64.00    45.00     -10.88   -2.81   -2.18    0.36394   -81.21  RIGHT     1.49726E-01   -88.91    3.79230E-01   161.29
   66.00    45.00     -11.66   -1.88   -1.45    0.31822   -86.41  RIGHT     1.36861E-01   -89.55    4.22020E-01   170.43
   68.00    45.00     -12.67   -1.12   -0.83    0.26437   -89.50  RIGHT     1.21866E-01   -89.62    4.60716E-01   178.61
   70.00    45.00     -13.98   -0.55   -0.36    0.21287    89.46  RIGHT     1.04794E-01   -86.52    4.91798E-01  -174.10
   72.00    45.00     -15.60   -0.21   -0.08    0.16983   -89.68  RIGHT     8.69782E-02   -75.81    5.11882E-01  -167.64
   74.00    45.00     -16.68   -0.10   -0.01    0.13856   -86.98  RIGHT     7.67903E-02   -51.54    5.18024E-01  -161.95
   76.00    45.00     -15.17   -0.27   -0.13    0.12098   -82.41  RIGHT     9.13876E-02   -20.16    5.07965E-01  -156.99
   78.00    45.00     -11.88   -0.76   -0.43    0.11764   -75.86  RIGHT     1.33477E-01     0.54    4.80333E-01  -152.73
   80.00    45.00      -8.78   -1.62   -0.86    0.12623   -67.19  RIGHT     1.90666E-01    11.12    4.34781E-01  -149.14
   82.00    45.00      -6.35   -2.98   -1.33    0.13902   -56.31  RIGHT     2.52331E-01    16.71    3.72056E-01  -146.21
   84.00    45.00      -4.56   -5.02   -1.77    0.14188   -43.40  RIGHT     3.10207E-01    19.88    2.93990E-01  -143.94
   86.00    45.00      -3.33   -8.22   -2.11    0.11997   -29.16  RIGHT     3.57283E-01    21.71    2.03415E-01  -142.32
   88.00    45.00      -2.61  -14.05   -2.31    0.06915   -14.52  RIGHT     3.87970E-01    22.67    1.03997E-01  -141.35
   90.00    45.00      -2.38 -999.99   -2.38    0.00000     0.00  LINEAR    3.98621E-01    22.98    1.53179E-11    38.97






 ***** DATA CARD NO. 10   RP   0    91     1  1000 -9.00000E+01  9.00000E+01  2.00000E+00  1.00000E+00  0.00000E+00  0.00000E+00



                                                - - - RADIATION PATTERNS - - -

  - - ANGLES - -           - POWER GAINS -       - - - POLARIZATION - - -    - - - E(THETA) - - -    - - - E(PHI) - - -
  THETA     PHI        VERT.   HOR.    TOTAL      AXIAL     TILT   SENSE     MAGNITUDE    PHASE      MAGNITUDE    PHASE 
 DEGREES  DEGREES       DB      DB      DB        RATIO     DEG.              VOLTS/M    DEGREES      VOLTS/M    DEGREES
  -90.00    90.00     -10.01 -999.99  -10.01    0.00000     0.00  LINEAR    1.65549E-01    12.96    1.12745E-11   -72.64
  -88.00    90.00     -10.26  -16.75   -9.38    0.46884    -3.94  LEFT      1.60932E-01    11.28    7.62210E-02   107.78
  -86.00    90.00     -10.95  -11.03   -7.98    0.79093   -43.92  LEFT      1.48512E-01     5.76    1.47231E-01   109.07
  -84.00    90.00     -11.91   -8.01   -6.53    0.51418   -68.17  LEFT      1.33005E-01    -4.96    2.08352E-01   111.32
  -82.00    90.00     -12.59   -6.22   -5.32    0.29078   -68.86  LEFT      1.23049E-01   -21.93    2.55980E-01   114.71
  -80.00    90.00     -12.22   -5.20   -4.41    0.11909   -66.75  LEFT      1.28301E-01   -42.07    2.88171E-01   119.51
  -78.00    90.00     -10.84   -4.70   -3.75    0.03245   -63.80  RIGHT     1.50524E-01   -58.56    3.05260E-01   126.13
  -76.00    90.00      -9.17   -4.55   -3.26    0.18113   -60.68  RIGHT     1.82314E-01   -68.64    3.10502E-01   135.04
  -74.00    90.00      -7.74   -4.55   -2.85    0.33662   -58.10  RIGHT     2.15058E-01   -73.61    3.10473E-01   146.63
  -72.00    90.00      -6.69   -4.44   -2.41    0.50006   -57.51  RIGHT     2.42517E-01   -75.15    3.14323E-01   160.66
  -70.00    90.00      -6.06   -4.00   -1.90    0.65081   -62.54  RIGHT     2.60801E-01   -74.35    3.30565E-01   175.73
  -68.00    90.00      -5.83   -3.21   -1.31    0.71399   -77.19  RIGHT     2.67981E-01   -71.85    3.62314E-01  -170.29
  -66.00    90.00      -5.96   -2.22   -0.69    0.65019   -88.97  RIGHT     2.63867E-01   -68.05    4.05705E-01  -158.96
  -64.00    90.00      -6.44   -1.26   -0.11    0.55016    87.95  RIGHT     2.49775E-01   -63.30    4.53135E-01  -150.70
  -62.00    90.00      -7.22   -0.46    0.37    0.45799    88.41  RIGHT     2.28172E-01   -58.05    4.97338E-01  -145.32
  -60.00    90.00      -8.27    0.16    0.74    0.37882    89.72  RIGHT     2.02232E-01   -53.12    5.33803E-01  -142.49
  -58.00    90.00      -9.50    0.60    1.01    0.31231   -89.29  RIGHT     1.75602E-01   -49.95    5.61837E-01  -142.00
  -56.00    90.00     -10.69    0.95    1.24    0.26146   -89.23  RIGHT     1.53096E-01   -50.87    5.84772E-01  -143.61
  -54.00    90.00     -11.30    1.30    1.54    0.23435    89.75  RIGHT     1.42765E-01   -57.93    6.09092E-01  -146.93
  -52.00    90.00     -10.54    1.76    2.01    0.24012    88.06  RIGHT     1.55674E-01   -68.79    6.42021E-01  -151.24
  -50.00    90.00      -8.49    2.36    2.71    0.28035    86.55  RIGHT     1.97260E-01   -76.71    6.87997E-01  -155.54
  -48.00    90.00      -5.99    3.07    3.58    0.34572    85.99  RIGHT     2.63103E-01   -78.98    7.46032E-01  -158.89
  -46.00    90.00      -3.62    3.78    4.50    0.42267    86.70  RIGHT     3.45320E-01   -77.09    8.09747E-01  -160.72
  -44.00    90.00      -1.61    4.40    5.37    0.50056    88.71  RIGHT     4.35693E-01   -72.81    8.69575E-01  -160.88
  -42.00    90.00       0.02    4.84    6.08    0.57321   -88.06  RIGHT     5.25458E-01   -67.20    9.15281E-01  -159.47
  -40.00    90.00       1.25    5.05    6.56    0.63727   -83.63  RIGHT     6.05157E-01   -60.83    9.37734E-01  -156.69
  -38.00    90.00       2.07    4.98    6.77    0.69062   -77.94  RIGHT     6.65010E-01   -53.98    9.29865E-01  -152.78
  -36.00    90.00       2.46    4.57    6.65    0.73133   -70.95  RIGHT     6.95560E-01   -46.83    8.87041E-01  -147.93
  -34.00    90.00       2.37    3.75    6.12    0.75744   -62.80  RIGHT     6.88406E-01   -39.44    8.07079E-01  -142.32
  -32.00    90.00       1.69    2.39    5.06    0.76731   -54.00  RIGHT     6.36876E-01   -31.85    6.90026E-01  -136.15
  -30.00    90.00       0.20    0.22    3.22    0.75910   -45.24  RIGHT     5.36574E-01   -24.07    5.37809E-01  -129.67
  -28.00    90.00      -2.66   -3.41   -0.01    0.72472   -36.98  RIGHT     3.85744E-01   -16.00    3.53878E-01  -123.47
  -26.00    90.00      -9.02  -11.26   -6.99    0.59790   -28.95  RIGHT     1.85465E-01    -6.93    1.43424E-01  -121.40
  -24.00    90.00     -18.65  -14.74  -13.26    0.61484    79.54  RIGHT     6.12573E-02   171.38    9.60356E-02    91.62
  -22.00    90.00      -3.60   -3.64   -0.61    0.90209   -43.65  RIGHT     3.46311E-01  -174.73    3.44638E-01    89.39
  -20.00    90.00       2.04    1.26    4.68    0.85238   -27.92  RIGHT     6.62568E-01  -166.13    6.06040E-01    96.31
  -18.00    90.00       5.61    4.42    8.07    0.82523   -22.27  RIGHT     9.99436E-01  -157.89    8.72254E-01   104.40
  -16.00    90.00       8.19    6.72   10.53    0.80805   -18.63  RIGHT     1.34544E+00  -149.75    1.13657E+00   112.85
  -14.00    90.00      10.16    8.48   12.41    0.79599   -15.90  RIGHT     1.68848E+00  -141.66    1.39213E+00   121.43
  -12.00    90.00      11.70    9.87   13.89    0.78707   -13.75  RIGHT     2.01638E+00  -133.61    1.63196E+00   130.02
  -10.00    90.00      12.91   10.95   15.05    0.78029   -12.04  RIGHT     2.31741E+00  -125.61    1.84912E+00   138.55
   -8.00    90.00      13.85   11.79   15.95    0.77503   -10.68  RIGHT     2.58076E+00  -117.66    2.03691E+00   146.97
   -6.00    90.00      14.54   12.42   16.62    0.77088    -9.65  RIGHT     2.79697E+00  -109.78    2.18920E+00   155.25
   -4.00    90.00      15.03   12.85   17.09    0.76753    -8.89  RIGHT     2.95830E+00  -101.98    2.30075E+00   163.35
   -2.00    90.00      15.32   13.10   17.36    0.76474    -8.40  RIGHT     3.05896E+00   -94.26    2.36750E+00   171.25
    0.00    90.00      15.43   13.17   17.45    0.76234    -8.16  RIGHT     3.09538E+00   -86.64    2.38688E+00   178.94
    2.00    90.00      15.34   13.06   17.36    0.76016    -8.15  RIGHT     3.06626E+00   -79.12    2.35794E+00  -173.58
    4.00    90.00      15.07   12.78   17.09    0.75810    -8.37  RIGHT     2.97268E+00   -71.72    2.28149E+00  -166.34
    6.00    90.00      14.61   12.30   16.62    0.75607    -8.80  RIGHT     2.81803E+00   -64.43    2.16009E+00  -159.33
    8.00    90.00      13.94   11.62   15.94    0.75401    -9.43  RIGHT     2.60790E+00   -57.27    1.99794E+00  -152.56
   10.00    90.00      13.03   10.72   15.04    0.75184   -10.27  RIGHT     2.34989E+00   -50.24    1.80066E+00  -146.03
   12.00    90.00      11.86    9.56   13.87    0.74947   -11.29  RIGHT     2.05335E+00   -43.33    1.57503E+00  -139.74
   14.00    90.00      10.37    8.08   12.38    0.74672   -12.49  RIGHT     1.72900E+00   -36.56    1.32864E+00  -133.70
   16.00    90.00       8.46    6.20   10.49    0.74318   -13.87  RIGHT     1.38855E+00   -29.93    1.06953E+00  -127.91
   18.00    90.00       5.99    3.74    8.02    0.73778   -15.39  RIGHT     1.04419E+00   -23.42    8.05819E-01  -122.40
   20.00    90.00       2.61    0.34    4.64    0.72732   -17.01  RIGHT     7.08047E-01   -17.04    5.45343E-01  -117.31
   22.00    90.00      -2.53   -4.98   -0.57    0.69870   -18.48  RIGHT     3.91668E-01   -10.75    2.95404E-01  -113.17
   24.00    90.00     -13.93  -18.33  -12.59    0.50551   -19.00  RIGHT     1.05409E-01    -4.29    6.35197E-02  -118.68
   26.00    90.00     -11.34  -10.84   -8.07    0.90802   -63.13  RIGHT     1.42098E-01  -179.14    1.50426E-01    86.41
   28.00    90.00      -3.65   -3.88   -0.75    0.86179   -39.78  RIGHT     3.44375E-01  -173.04    3.35280E-01    88.61
   30.00    90.00      -0.45   -0.55    2.51    0.84585   -42.99  RIGHT     4.97524E-01  -167.19    4.91780E-01    93.29
   32.00    90.00       1.18    1.44    4.32    0.83736   -49.86  RIGHT     6.00405E-01  -161.41    6.18474E-01    98.61
   34.00    90.00       1.93    2.70    5.35    0.82158   -58.60  RIGHT     6.54693E-01  -155.65    7.15591E-01   104.37
   36.00    90.00       2.06    3.51    5.86    0.78889   -67.50  RIGHT     6.64736E-01  -149.82    7.84836E-01   110.58
   38.00    90.00       1.70    3.99    6.00    0.73532   -74.87  RIGHT     6.37218E-01  -143.78    8.29271E-01   117.27
   40.00    90.00       0.89    4.23    5.88    0.66270   -80.13  RIGHT     5.80681E-01  -137.34    8.53106E-01   124.52
   42.00    90.00      -0.32    4.31    5.60    0.57612   -83.42  RIGHT     5.04957E-01  -130.14    8.61323E-01   132.34
   44.00    90.00      -1.91    4.29    5.23    0.48246   -85.09  RIGHT     4.20635E-01  -121.59    8.59106E-01   140.69
   46.00    90.00      -3.79    4.21    4.85    0.39004   -85.43  RIGHT     3.38698E-01  -110.75    8.51084E-01   149.45
   48.00    90.00      -5.75    4.10    4.53    0.30799   -84.69  RIGHT     2.70299E-01   -96.43    8.40516E-01   158.41
   50.00    90.00      -7.32    3.98    4.29    0.24456   -83.17  RIGHT     2.25583E-01   -78.28    8.28704E-01   167.30
   52.00    90.00      -7.99    3.83    4.11    0.20506   -81.23  RIGHT     2.08989E-01   -59.02    8.14881E-01   175.84
   54.00    90.00      -7.76    3.64    3.94    0.19063   -79.23  RIGHT     2.14433E-01   -43.29    7.96684E-01  -176.16
   56.00    90.00      -7.13    3.35    3.72    0.19901   -77.39  RIGHT     2.30644E-01   -33.05    7.71034E-01  -168.85
   58.00    90.00      -6.45    2.94    3.41    0.22655   -75.78  RIGHT     2.49479E-01   -27.33    7.35088E-01  -162.25
   60.00    90.00      -5.86    2.35    2.96    0.26991   -74.29  RIGHT     2.67064E-01   -24.50    6.87003E-01  -156.34
   62.00    90.00      -5.40    1.55    2.35    0.32672   -72.66  RIGHT     2.81607E-01   -23.16    6.26376E-01  -151.04
   64.00    90.00      -5.09    0.49    1.55    0.39533   -70.44  RIGHT     2.91782E-01   -22.29    5.54371E-01  -146.24
   66.00    90.00      -4.96   -0.88    0.55    0.47334   -66.82  RIGHT     2.96239E-01   -21.13    4.73579E-01  -141.80
   68.00    90.00      -5.03   -2.62   -0.65    0.55270   -60.26  RIGHT     2.93868E-01   -19.13    3.87699E-01  -137.55
   70.00    90.00      -5.31   -4.81   -2.05    0.60592   -48.55  RIGHT     2.84343E-01   -15.83    3.01114E-01  -133.22
   72.00    90.00      -5.81   -7.60   -3.60    0.57966   -32.88  RIGHT     2.68644E-01   -10.77    2.18433E-01  -128.35
   74.00    90.00      -6.45  -11.21   -5.20    0.46256   -19.77  RIGHT     2.49403E-01    -3.47    1.44115E-01  -121.88
   76.00    90.00      -7.12  -16.07   -6.60    0.30831   -10.25  RIGHT     2.30895E-01     6.42    8.24090E-02  -110.79
   78.00    90.00      -7.61  -22.55   -7.47    0.17503    -2.16  RIGHT     2.18258E-01    18.70    3.90825E-02   -83.11
   80.00    90.00      -7.72  -25.47   -7.65    0.10273     4.52  RIGHT     2.15407E-01    32.05    2.79167E-02   -20.85
   82.00    90.00      -7.44  -23.02   -7.32    0.08414     8.17  RIGHT     2.22541E-01    44.41    3.70323E-02    13.35
   84.00    90.00      -6.93  -22.36   -6.81    0.08059     8.47  RIGHT     2.35906E-01    54.21    3.99283E-02    25.09
   86.00    90.00      -6.42  -24.01   -6.35    0.06669     6.51  RIGHT     2.50149E-01    60.96    3.30475E-02    30.21
   88.00    90.00      -6.07  -29.02   -6.05    0.03786     3.45  RIGHT     2.60639E-01    64.83    1.85509E-02    32.56
   90.00    90.00      -5.94 -999.99   -5.94    0.00000     0.00  LINEAR    2.64461E-01    66.08    2.81367E-12  -146.75






 ***** DATA CARD NO. 11   XQ   0     0     0     0  0.00000E+00  0.00000E+00  0.00000E+00  0.00000E+00  0.00000E+00  0.00000E+00
 ***** DATA CARD NO. 12   EN   0     0     0     0  0.00000E+00  0.00000E+00  0.00000E+00  0.00000E+00  0.00000E+00  0.00000E+00

 RUN TIME =   119.520
