 
 
 **********************************************
    NUMERICAL ELECTROMAGNETICS CODE (NEC-2D-P)
 **********************************************
 
 Enhanced version, copyright 1997-2001 Nittany Scientific
 
 Run date:  20:20:29 on 08-JAN-2009
 
 Parameter dimensions:
 
   NEC2D Version:  2.5  
   Maximum # of segments:           275
   Maximum # of segments in core:           275
   Maximum # of new connections to NGF segments:           180
   Maximum # of sources:            25
   Maximum # of degrees of symmetry:             1
   Maximum # of networks:             0
   Maximum # of segments at a junction:             1
   Maximum # of loads:             1
   Maximum # of frequencies or angles:           361
 
 **********************************************
 
1



                                 *********************************************

                                    NUMERICAL ELECTROMAGNETICS CODE (NEC-2D)

                                 *********************************************




                                     - - - - COMMENTS - - - -


  NEC-WIN Example                                                                                                                
  Simple dipole antenna in Free Space                                                                                            
  Optimized for resonance at 300 MHz                                                                                             
                                                                                                                                 




                                 - - - STRUCTURE SPECIFICATION - - -

                                     COORDINATES MUST BE INPUT IN
                                     METERS OR BE SCALED TO METERS
                                     BEFORE STRUCTURE INPUT IS ENDED


  WIRE                                                                               NO. OF    FIRST  LAST     TAG
  NO.        X1         Y1         Z1          X2         Y2         Z2      RADIUS   SEG.     SEG.   SEG.     NO.
     1   -0.24180    0.00000    0.25000     0.24180    0.00000    0.25000    0.00010     11        1    11       1
      THE STRUCTURE HAS BEEN MOVED, MOVE DATA CARD IS -
        1    4   0.00000   0.00000   0.00000   0.00000   0.70000   0.00000   0.00000
       GM command acting on tag #'s            0 through            0
  inclusive.
      THE STRUCTURE HAS BEEN MOVED, MOVE DATA CARD IS -
        5    4   0.00000   0.00000   0.00000   0.70000   0.00000   0.00000   0.00000
       GM command acting on tag #'s            0 through            0
  inclusive.
      STRUCTURE SCALED BY FACTOR   1.00000

   GROUND PLANE SPECIFIED.

   WHERE WIRE ENDS TOUCH GROUND, CURRENT WILL BE INTERPOLATED TO IMAGE IN GROUND PLANE.


   TOTAL SEGMENTS USED=  275     NO. SEG. IN A SYMMETRIC CELL=  275     SYMMETRY FLAG=  0


         - MULTIPLE WIRE JUNCTIONS -
 JUNCTION    SEGMENTS  (- FOR END 1, + FOR END 2)
  NONE




                                 - - - - SEGMENTATION DATA - - - -

                                        COORDINATES IN METERS

                         I+ AND I- INDICATE THE SEGMENTS BEFORE AND AFTER I


  SEG.     COORDINATES OF SEG. CENTER       SEG.     ORIENTATION ANGLES    WIRE    CONNECTION DATA   TAG
  NO.        X          Y          Z        LENGTH     ALPHA     BETA      RADIUS    I-   I    I+    NO.
     1   -0.21982    0.00000    0.25000    0.04396    0.00000   0.00000   0.00010     0    1    2      1
     2   -0.17585    0.00000    0.25000    0.04396    0.00000   0.00000   0.00010     1    2    3      1
     3   -0.13189    0.00000    0.25000    0.04396    0.00000   0.00000   0.00010     2    3    4      1
     4   -0.08793    0.00000    0.25000    0.04396    0.00000   0.00000   0.00010     3    4    5      1
     5   -0.04396    0.00000    0.25000    0.04396    0.00000   0.00000   0.00010     4    5    6      1
     6    0.00000    0.00000    0.25000    0.04396    0.00000   0.00000   0.00010     5    6    7      1
     7    0.04396    0.00000    0.25000    0.04396    0.00000   0.00000   0.00010     6    7    8      1
     8    0.08793    0.00000    0.25000    0.04396    0.00000   0.00000   0.00010     7    8    9      1
     9    0.13189    0.00000    0.25000    0.04396    0.00000   0.00000   0.00010     8    9   10      1
    10    0.17585    0.00000    0.25000    0.04396    0.00000   0.00000   0.00010     9   10   11      1
    11    0.21982    0.00000    0.25000    0.04396    0.00000   0.00000   0.00010    10   11    0      1
    12   -0.21982    0.70000    0.25000    0.04396    0.00000   0.00000   0.00010     0   12   13      2
    13   -0.17585    0.70000    0.25000    0.04396    0.00000   0.00000   0.00010    12   13   14      2
    14   -0.13189    0.70000    0.25000    0.04396    0.00000   0.00000   0.00010    13   14   15      2
    15   -0.08793    0.70000    0.25000    0.04396    0.00000   0.00000   0.00010    14   15   16      2
    16   -0.04396    0.70000    0.25000    0.04396    0.00000   0.00000   0.00010    15   16   17      2
    17    0.00000    0.70000    0.25000    0.04396    0.00000   0.00000   0.00010    16   17   18      2
    18    0.04396    0.70000    0.25000    0.04396    0.00000   0.00000   0.00010    17   18   19      2
    19    0.08793    0.70000    0.25000    0.04396    0.00000   0.00000   0.00010    18   19   20      2
    20    0.13189    0.70000    0.25000    0.04396    0.00000   0.00000   0.00010    19   20   21      2
    21    0.17585    0.70000    0.25000    0.04396    0.00000   0.00000   0.00010    20   21   22      2
    22    0.21982    0.70000    0.25000    0.04396    0.00000   0.00000   0.00010    21   22    0      2
    23   -0.21982    1.40000    0.25000    0.04396    0.00000   0.00000   0.00010     0   23   24      3
    24   -0.17585    1.40000    0.25000    0.04396    0.00000   0.00000   0.00010    23   24   25      3
    25   -0.13189    1.40000    0.25000    0.04396    0.00000   0.00000   0.00010    24   25   26      3
    26   -0.08793    1.40000    0.25000    0.04396    0.00000   0.00000   0.00010    25   26   27      3
    27   -0.04396    1.40000    0.25000    0.04396    0.00000   0.00000   0.00010    26   27   28      3
    28    0.00000    1.40000    0.25000    0.04396    0.00000   0.00000   0.00010    27   28   29      3
    29    0.04396    1.40000    0.25000    0.04396    0.00000   0.00000   0.00010    28   29   30      3
    30    0.08793    1.40000    0.25000    0.04396    0.00000   0.00000   0.00010    29   30   31      3
    31    0.13189    1.40000    0.25000    0.04396    0.00000   0.00000   0.00010    30   31   32      3
    32    0.17585    1.40000    0.25000    0.04396    0.00000   0.00000   0.00010    31   32   33      3
    33    0.21982    1.40000    0.25000    0.04396    0.00000   0.00000   0.00010    32   33    0      3
    34   -0.21982    2.10000    0.25000    0.04396    0.00000   0.00000   0.00010     0   34   35      4
    35   -0.17585    2.10000    0.25000    0.04396    0.00000   0.00000   0.00010    34   35   36      4
    36   -0.13189    2.10000    0.25000    0.04396    0.00000   0.00000   0.00010    35   36   37      4
    37   -0.08793    2.10000    0.25000    0.04396    0.00000   0.00000   0.00010    36   37   38      4
    38   -0.04396    2.10000    0.25000    0.04396    0.00000   0.00000   0.00010    37   38   39      4
    39    0.00000    2.10000    0.25000    0.04396    0.00000   0.00000   0.00010    38   39   40      4
    40    0.04396    2.10000    0.25000    0.04396    0.00000   0.00000   0.00010    39   40   41      4
    41    0.08793    2.10000    0.25000    0.04396    0.00000   0.00000   0.00010    40   41   42      4
    42    0.13189    2.10000    0.25000    0.04396    0.00000   0.00000   0.00010    41   42   43      4
    43    0.17585    2.10000    0.25000    0.04396    0.00000   0.00000   0.00010    42   43   44      4
    44    0.21982    2.10000    0.25000    0.04396    0.00000   0.00000   0.00010    43   44    0      4
    45   -0.21982    2.80000    0.25000    0.04396    0.00000   0.00000   0.00010     0   45   46      5
    46   -0.17585    2.80000    0.25000    0.04396    0.00000   0.00000   0.00010    45   46   47      5
    47   -0.13189    2.80000    0.25000    0.04396    0.00000   0.00000   0.00010    46   47   48      5
    48   -0.08793    2.80000    0.25000    0.04396    0.00000   0.00000   0.00010    47   48   49      5
    49   -0.04396    2.80000    0.25000    0.04396    0.00000   0.00000   0.00010    48   49   50      5
    50    0.00000    2.80000    0.25000    0.04396    0.00000   0.00000   0.00010    49   50   51      5
    51    0.04396    2.80000    0.25000    0.04396    0.00000   0.00000   0.00010    50   51   52      5
    52    0.08793    2.80000    0.25000    0.04396    0.00000   0.00000   0.00010    51   52   53      5
    53    0.13189    2.80000    0.25000    0.04396    0.00000   0.00000   0.00010    52   53   54      5
    54    0.17585    2.80000    0.25000    0.04396    0.00000   0.00000   0.00010    53   54   55      5
    55    0.21982    2.80000    0.25000    0.04396    0.00000   0.00000   0.00010    54   55    0      5
    56    0.48018    0.00000    0.25000    0.04396    0.00000   0.00000   0.00010     0   56   57      6
    57    0.52415    0.00000    0.25000    0.04396    0.00000   0.00000   0.00010    56   57   58      6
    58    0.56811    0.00000    0.25000    0.04396    0.00000   0.00000   0.00010    57   58   59      6
    59    0.61207    0.00000    0.25000    0.04396    0.00000   0.00000   0.00010    58   59   60      6
    60    0.65604    0.00000    0.25000    0.04396    0.00000   0.00000   0.00010    59   60   61      6
    61    0.70000    0.00000    0.25000    0.04396    0.00000   0.00000   0.00010    60   61   62      6
    62    0.74396    0.00000    0.25000    0.04396    0.00000   0.00000   0.00010    61   62   63      6
    63    0.78793    0.00000    0.25000    0.04396    0.00000   0.00000   0.00010    62   63   64      6
    64    0.83189    0.00000    0.25000    0.04396    0.00000   0.00000   0.00010    63   64   65      6
    65    0.87585    0.00000    0.25000    0.04396    0.00000   0.00000   0.00010    64   65   66      6
    66    0.91982    0.00000    0.25000    0.04396    0.00000   0.00000   0.00010    65   66    0      6
    67    0.48018    0.70000    0.25000    0.04396    0.00000   0.00000   0.00010     0   67   68      7
    68    0.52415    0.70000    0.25000    0.04396    0.00000   0.00000   0.00010    67   68   69      7
    69    0.56811    0.70000    0.25000    0.04396    0.00000   0.00000   0.00010    68   69   70      7
    70    0.61207    0.70000    0.25000    0.04396    0.00000   0.00000   0.00010    69   70   71      7
    71    0.65604    0.70000    0.25000    0.04396    0.00000   0.00000   0.00010    70   71   72      7
    72    0.70000    0.70000    0.25000    0.04396    0.00000   0.00000   0.00010    71   72   73      7
    73    0.74396    0.70000    0.25000    0.04396    0.00000   0.00000   0.00010    72   73   74      7
    74    0.78793    0.70000    0.25000    0.04396    0.00000   0.00000   0.00010    73   74   75      7
    75    0.83189    0.70000    0.25000    0.04396    0.00000   0.00000   0.00010    74   75   76      7
    76    0.87585    0.70000    0.25000    0.04396    0.00000   0.00000   0.00010    75   76   77      7
    77    0.91982    0.70000    0.25000    0.04396    0.00000   0.00000   0.00010    76   77    0      7
    78    0.48018    1.40000    0.25000    0.04396    0.00000   0.00000   0.00010     0   78   79      8
    79    0.52415    1.40000    0.25000    0.04396    0.00000   0.00000   0.00010    78   79   80      8
    80    0.56811    1.40000    0.25000    0.04396    0.00000   0.00000   0.00010    79   80   81      8
    81    0.61207    1.40000    0.25000    0.04396    0.00000   0.00000   0.00010    80   81   82      8
    82    0.65604    1.40000    0.25000    0.04396    0.00000   0.00000   0.00010    81   82   83      8
    83    0.70000    1.40000    0.25000    0.04396    0.00000   0.00000   0.00010    82   83   84      8
    84    0.74396    1.40000    0.25000    0.04396    0.00000   0.00000   0.00010    83   84   85      8
    85    0.78793    1.40000    0.25000    0.04396    0.00000   0.00000   0.00010    84   85   86      8
    86    0.83189    1.40000    0.25000    0.04396    0.00000   0.00000   0.00010    85   86   87      8
    87    0.87585    1.40000    0.25000    0.04396    0.00000   0.00000   0.00010    86   87   88      8
    88    0.91982    1.40000    0.25000    0.04396    0.00000   0.00000   0.00010    87   88    0      8
    89    0.48018    2.10000    0.25000    0.04396    0.00000   0.00000   0.00010     0   89   90      9
    90    0.52415    2.10000    0.25000    0.04396    0.00000   0.00000   0.00010    89   90   91      9
    91    0.56811    2.10000    0.25000    0.04396    0.00000   0.00000   0.00010    90   91   92      9
    92    0.61207    2.10000    0.25000    0.04396    0.00000   0.00000   0.00010    91   92   93      9
    93    0.65604    2.10000    0.25000    0.04396    0.00000   0.00000   0.00010    92   93   94      9
    94    0.70000    2.10000    0.25000    0.04396    0.00000   0.00000   0.00010    93   94   95      9
    95    0.74396    2.10000    0.25000    0.04396    0.00000   0.00000   0.00010    94   95   96      9
    96    0.78793    2.10000    0.25000    0.04396    0.00000   0.00000   0.00010    95   96   97      9
    97    0.83189    2.10000    0.25000    0.04396    0.00000   0.00000   0.00010    96   97   98      9
    98    0.87585    2.10000    0.25000    0.04396    0.00000   0.00000   0.00010    97   98   99      9
    99    0.91982    2.10000    0.25000    0.04396    0.00000   0.00000   0.00010    98   99    0      9
   100    0.48018    2.80000    0.25000    0.04396    0.00000   0.00000   0.00010     0  100  101     10
   101    0.52415    2.80000    0.25000    0.04396    0.00000   0.00000   0.00010   100  101  102     10
   102    0.56811    2.80000    0.25000    0.04396    0.00000   0.00000   0.00010   101  102  103     10
   103    0.61207    2.80000    0.25000    0.04396    0.00000   0.00000   0.00010   102  103  104     10
   104    0.65604    2.80000    0.25000    0.04396    0.00000   0.00000   0.00010   103  104  105     10
   105    0.70000    2.80000    0.25000    0.04396    0.00000   0.00000   0.00010   104  105  106     10
   106    0.74396    2.80000    0.25000    0.04396    0.00000   0.00000   0.00010   105  106  107     10
   107    0.78793    2.80000    0.25000    0.04396    0.00000   0.00000   0.00010   106  107  108     10
   108    0.83189    2.80000    0.25000    0.04396    0.00000   0.00000   0.00010   107  108  109     10
   109    0.87585    2.80000    0.25000    0.04396    0.00000   0.00000   0.00010   108  109  110     10
   110    0.91982    2.80000    0.25000    0.04396    0.00000   0.00000   0.00010   109  110    0     10
   111    1.18018    0.00000    0.25000    0.04396    0.00000   0.00000   0.00010     0  111  112     11
   112    1.22415    0.00000    0.25000    0.04396    0.00000   0.00000   0.00010   111  112  113     11
   113    1.26811    0.00000    0.25000    0.04396    0.00000   0.00000   0.00010   112  113  114     11
   114    1.31207    0.00000    0.25000    0.04396    0.00000   0.00000   0.00010   113  114  115     11
   115    1.35604    0.00000    0.25000    0.04396    0.00000   0.00000   0.00010   114  115  116     11
   116    1.40000    0.00000    0.25000    0.04396    0.00000   0.00000   0.00010   115  116  117     11
   117    1.44396    0.00000    0.25000    0.04396    0.00000   0.00000   0.00010   116  117  118     11
   118    1.48793    0.00000    0.25000    0.04396    0.00000   0.00000   0.00010   117  118  119     11
   119    1.53189    0.00000    0.25000    0.04396    0.00000   0.00000   0.00010   118  119  120     11
   120    1.57585    0.00000    0.25000    0.04396    0.00000   0.00000   0.00010   119  120  121     11
   121    1.61982    0.00000    0.25000    0.04396    0.00000   0.00000   0.00010   120  121    0     11
   122    1.18018    0.70000    0.25000    0.04396    0.00000   0.00000   0.00010     0  122  123     12
   123    1.22415    0.70000    0.25000    0.04396    0.00000   0.00000   0.00010   122  123  124     12
   124    1.26811    0.70000    0.25000    0.04396    0.00000   0.00000   0.00010   123  124  125     12
   125    1.31207    0.70000    0.25000    0.04396    0.00000   0.00000   0.00010   124  125  126     12
   126    1.35604    0.70000    0.25000    0.04396    0.00000   0.00000   0.00010   125  126  127     12
   127    1.40000    0.70000    0.25000    0.04396    0.00000   0.00000   0.00010   126  127  128     12
   128    1.44396    0.70000    0.25000    0.04396    0.00000   0.00000   0.00010   127  128  129     12
   129    1.48793    0.70000    0.25000    0.04396    0.00000   0.00000   0.00010   128  129  130     12
   130    1.53189    0.70000    0.25000    0.04396    0.00000   0.00000   0.00010   129  130  131     12
   131    1.57585    0.70000    0.25000    0.04396    0.00000   0.00000   0.00010   130  131  132     12
   132    1.61982    0.70000    0.25000    0.04396    0.00000   0.00000   0.00010   131  132    0     12
   133    1.18018    1.40000    0.25000    0.04396    0.00000   0.00000   0.00010     0  133  134     13
   134    1.22415    1.40000    0.25000    0.04396    0.00000   0.00000   0.00010   133  134  135     13
   135    1.26811    1.40000    0.25000    0.04396    0.00000   0.00000   0.00010   134  135  136     13
   136    1.31207    1.40000    0.25000    0.04396    0.00000   0.00000   0.00010   135  136  137     13
   137    1.35604    1.40000    0.25000    0.04396    0.00000   0.00000   0.00010   136  137  138     13
   138    1.40000    1.40000    0.25000    0.04396    0.00000   0.00000   0.00010   137  138  139     13
   139    1.44396    1.40000    0.25000    0.04396    0.00000   0.00000   0.00010   138  139  140     13
   140    1.48793    1.40000    0.25000    0.04396    0.00000   0.00000   0.00010   139  140  141     13
   141    1.53189    1.40000    0.25000    0.04396    0.00000   0.00000   0.00010   140  141  142     13
   142    1.57585    1.40000    0.25000    0.04396    0.00000   0.00000   0.00010   141  142  143     13
   143    1.61982    1.40000    0.25000    0.04396    0.00000   0.00000   0.00010   142  143    0     13
   144    1.18018    2.10000    0.25000    0.04396    0.00000   0.00000   0.00010     0  144  145     14
   145    1.22415    2.10000    0.25000    0.04396    0.00000   0.00000   0.00010   144  145  146     14
   146    1.26811    2.10000    0.25000    0.04396    0.00000   0.00000   0.00010   145  146  147     14
   147    1.31207    2.10000    0.25000    0.04396    0.00000   0.00000   0.00010   146  147  148     14
   148    1.35604    2.10000    0.25000    0.04396    0.00000   0.00000   0.00010   147  148  149     14
   149    1.40000    2.10000    0.25000    0.04396    0.00000   0.00000   0.00010   148  149  150     14
   150    1.44396    2.10000    0.25000    0.04396    0.00000   0.00000   0.00010   149  150  151     14
   151    1.48793    2.10000    0.25000    0.04396    0.00000   0.00000   0.00010   150  151  152     14
   152    1.53189    2.10000    0.25000    0.04396    0.00000   0.00000   0.00010   151  152  153     14
   153    1.57585    2.10000    0.25000    0.04396    0.00000   0.00000   0.00010   152  153  154     14
   154    1.61982    2.10000    0.25000    0.04396    0.00000   0.00000   0.00010   153  154    0     14
   155    1.18018    2.80000    0.25000    0.04396    0.00000   0.00000   0.00010     0  155  156     15
   156    1.22415    2.80000    0.25000    0.04396    0.00000   0.00000   0.00010   155  156  157     15
   157    1.26811    2.80000    0.25000    0.04396    0.00000   0.00000   0.00010   156  157  158     15
   158    1.31207    2.80000    0.25000    0.04396    0.00000   0.00000   0.00010   157  158  159     15
   159    1.35604    2.80000    0.25000    0.04396    0.00000   0.00000   0.00010   158  159  160     15
   160    1.40000    2.80000    0.25000    0.04396    0.00000   0.00000   0.00010   159  160  161     15
   161    1.44396    2.80000    0.25000    0.04396    0.00000   0.00000   0.00010   160  161  162     15
   162    1.48793    2.80000    0.25000    0.04396    0.00000   0.00000   0.00010   161  162  163     15
   163    1.53189    2.80000    0.25000    0.04396    0.00000   0.00000   0.00010   162  163  164     15
   164    1.57585    2.80000    0.25000    0.04396    0.00000   0.00000   0.00010   163  164  165     15
   165    1.61982    2.80000    0.25000    0.04396    0.00000   0.00000   0.00010   164  165    0     15
   166    1.88018    0.00000    0.25000    0.04396    0.00000   0.00000   0.00010     0  166  167     16
   167    1.92415    0.00000    0.25000    0.04396    0.00000   0.00000   0.00010   166  167  168     16
   168    1.96811    0.00000    0.25000    0.04396    0.00000   0.00000   0.00010   167  168  169     16
   169    2.01207    0.00000    0.25000    0.04396    0.00000   0.00000   0.00010   168  169  170     16
   170    2.05604    0.00000    0.25000    0.04396    0.00000   0.00000   0.00010   169  170  171     16
   171    2.10000    0.00000    0.25000    0.04396    0.00000   0.00000   0.00010   170  171  172     16
   172    2.14396    0.00000    0.25000    0.04396    0.00000   0.00000   0.00010   171  172  173     16
   173    2.18793    0.00000    0.25000    0.04396    0.00000   0.00000   0.00010   172  173  174     16
   174    2.23189    0.00000    0.25000    0.04396    0.00000   0.00000   0.00010   173  174  175     16
   175    2.27585    0.00000    0.25000    0.04396    0.00000   0.00000   0.00010   174  175  176     16
   176    2.31982    0.00000    0.25000    0.04396    0.00000   0.00000   0.00010   175  176    0     16
   177    1.88018    0.70000    0.25000    0.04396    0.00000   0.00000   0.00010     0  177  178     17
   178    1.92415    0.70000    0.25000    0.04396    0.00000   0.00000   0.00010   177  178  179     17
   179    1.96811    0.70000    0.25000    0.04396    0.00000   0.00000   0.00010   178  179  180     17
   180    2.01207    0.70000    0.25000    0.04396    0.00000   0.00000   0.00010   179  180  181     17
   181    2.05604    0.70000    0.25000    0.04396    0.00000   0.00000   0.00010   180  181  182     17
   182    2.10000    0.70000    0.25000    0.04396    0.00000   0.00000   0.00010   181  182  183     17
   183    2.14396    0.70000    0.25000    0.04396    0.00000   0.00000   0.00010   182  183  184     17
   184    2.18793    0.70000    0.25000    0.04396    0.00000   0.00000   0.00010   183  184  185     17
   185    2.23189    0.70000    0.25000    0.04396    0.00000   0.00000   0.00010   184  185  186     17
   186    2.27585    0.70000    0.25000    0.04396    0.00000   0.00000   0.00010   185  186  187     17
   187    2.31982    0.70000    0.25000    0.04396    0.00000   0.00000   0.00010   186  187    0     17
   188    1.88018    1.40000    0.25000    0.04396    0.00000   0.00000   0.00010     0  188  189     18
   189    1.92415    1.40000    0.25000    0.04396    0.00000   0.00000   0.00010   188  189  190     18
   190    1.96811    1.40000    0.25000    0.04396    0.00000   0.00000   0.00010   189  190  191     18
   191    2.01207    1.40000    0.25000    0.04396    0.00000   0.00000   0.00010   190  191  192     18
   192    2.05604    1.40000    0.25000    0.04396    0.00000   0.00000   0.00010   191  192  193     18
   193    2.10000    1.40000    0.25000    0.04396    0.00000   0.00000   0.00010   192  193  194     18
   194    2.14396    1.40000    0.25000    0.04396    0.00000   0.00000   0.00010   193  194  195     18
   195    2.18793    1.40000    0.25000    0.04396    0.00000   0.00000   0.00010   194  195  196     18
   196    2.23189    1.40000    0.25000    0.04396    0.00000   0.00000   0.00010   195  196  197     18
   197    2.27585    1.40000    0.25000    0.04396    0.00000   0.00000   0.00010   196  197  198     18
   198    2.31982    1.40000    0.25000    0.04396    0.00000   0.00000   0.00010   197  198    0     18
   199    1.88018    2.10000    0.25000    0.04396    0.00000   0.00000   0.00010     0  199  200     19
   200    1.92415    2.10000    0.25000    0.04396    0.00000   0.00000   0.00010   199  200  201     19
   201    1.96811    2.10000    0.25000    0.04396    0.00000   0.00000   0.00010   200  201  202     19
   202    2.01207    2.10000    0.25000    0.04396    0.00000   0.00000   0.00010   201  202  203     19
   203    2.05604    2.10000    0.25000    0.04396    0.00000   0.00000   0.00010   202  203  204     19
   204    2.10000    2.10000    0.25000    0.04396    0.00000   0.00000   0.00010   203  204  205     19
   205    2.14396    2.10000    0.25000    0.04396    0.00000   0.00000   0.00010   204  205  206     19
   206    2.18793    2.10000    0.25000    0.04396    0.00000   0.00000   0.00010   205  206  207     19
   207    2.23189    2.10000    0.25000    0.04396    0.00000   0.00000   0.00010   206  207  208     19
   208    2.27585    2.10000    0.25000    0.04396    0.00000   0.00000   0.00010   207  208  209     19
   209    2.31982    2.10000    0.25000    0.04396    0.00000   0.00000   0.00010   208  209    0     19
   210    1.88018    2.80000    0.25000    0.04396    0.00000   0.00000   0.00010     0  210  211     20
   211    1.92415    2.80000    0.25000    0.04396    0.00000   0.00000   0.00010   210  211  212     20
   212    1.96811    2.80000    0.25000    0.04396    0.00000   0.00000   0.00010   211  212  213     20
   213    2.01207    2.80000    0.25000    0.04396    0.00000   0.00000   0.00010   212  213  214     20
   214    2.05604    2.80000    0.25000    0.04396    0.00000   0.00000   0.00010   213  214  215     20
   215    2.10000    2.80000    0.25000    0.04396    0.00000   0.00000   0.00010   214  215  216     20
   216    2.14396    2.80000    0.25000    0.04396    0.00000   0.00000   0.00010   215  216  217     20
   217    2.18793    2.80000    0.25000    0.04396    0.00000   0.00000   0.00010   216  217  218     20
   218    2.23189    2.80000    0.25000    0.04396    0.00000   0.00000   0.00010   217  218  219     20
   219    2.27585    2.80000    0.25000    0.04396    0.00000   0.00000   0.00010   218  219  220     20
   220    2.31982    2.80000    0.25000    0.04396    0.00000   0.00000   0.00010   219  220    0     20
   221    2.58018    0.00000    0.25000    0.04396    0.00000   0.00000   0.00010     0  221  222     21
   222    2.62415    0.00000    0.25000    0.04396    0.00000   0.00000   0.00010   221  222  223     21
   223    2.66811    0.00000    0.25000    0.04396    0.00000   0.00000   0.00010   222  223  224     21
   224    2.71207    0.00000    0.25000    0.04396    0.00000   0.00000   0.00010   223  224  225     21
   225    2.75604    0.00000    0.25000    0.04396    0.00000   0.00000   0.00010   224  225  226     21
   226    2.80000    0.00000    0.25000    0.04396    0.00000   0.00000   0.00010   225  226  227     21
   227    2.84396    0.00000    0.25000    0.04396    0.00000   0.00000   0.00010   226  227  228     21
   228    2.88793    0.00000    0.25000    0.04396    0.00000   0.00000   0.00010   227  228  229     21
   229    2.93189    0.00000    0.25000    0.04396    0.00000   0.00000   0.00010   228  229  230     21
   230    2.97585    0.00000    0.25000    0.04396    0.00000   0.00000   0.00010   229  230  231     21
   231    3.01982    0.00000    0.25000    0.04396    0.00000   0.00000   0.00010   230  231    0     21
   232    2.58018    0.70000    0.25000    0.04396    0.00000   0.00000   0.00010     0  232  233     22
   233    2.62415    0.70000    0.25000    0.04396    0.00000   0.00000   0.00010   232  233  234     22
   234    2.66811    0.70000    0.25000    0.04396    0.00000   0.00000   0.00010   233  234  235     22
   235    2.71207    0.70000    0.25000    0.04396    0.00000   0.00000   0.00010   234  235  236     22
   236    2.75604    0.70000    0.25000    0.04396    0.00000   0.00000   0.00010   235  236  237     22
   237    2.80000    0.70000    0.25000    0.04396    0.00000   0.00000   0.00010   236  237  238     22
   238    2.84396    0.70000    0.25000    0.04396    0.00000   0.00000   0.00010   237  238  239     22
   239    2.88793    0.70000    0.25000    0.04396    0.00000   0.00000   0.00010   238  239  240     22
   240    2.93189    0.70000    0.25000    0.04396    0.00000   0.00000   0.00010   239  240  241     22
   241    2.97585    0.70000    0.25000    0.04396    0.00000   0.00000   0.00010   240  241  242     22
   242    3.01982    0.70000    0.25000    0.04396    0.00000   0.00000   0.00010   241  242    0     22
   243    2.58018    1.40000    0.25000    0.04396    0.00000   0.00000   0.00010     0  243  244     23
   244    2.62415    1.40000    0.25000    0.04396    0.00000   0.00000   0.00010   243  244  245     23
   245    2.66811    1.40000    0.25000    0.04396    0.00000   0.00000   0.00010   244  245  246     23
   246    2.71207    1.40000    0.25000    0.04396    0.00000   0.00000   0.00010   245  246  247     23
   247    2.75604    1.40000    0.25000    0.04396    0.00000   0.00000   0.00010   246  247  248     23
   248    2.80000    1.40000    0.25000    0.04396    0.00000   0.00000   0.00010   247  248  249     23
   249    2.84396    1.40000    0.25000    0.04396    0.00000   0.00000   0.00010   248  249  250     23
   250    2.88793    1.40000    0.25000    0.04396    0.00000   0.00000   0.00010   249  250  251     23
   251    2.93189    1.40000    0.25000    0.04396    0.00000   0.00000   0.00010   250  251  252     23
   252    2.97585    1.40000    0.25000    0.04396    0.00000   0.00000   0.00010   251  252  253     23
   253    3.01982    1.40000    0.25000    0.04396    0.00000   0.00000   0.00010   252  253    0     23
   254    2.58018    2.10000    0.25000    0.04396    0.00000   0.00000   0.00010     0  254  255     24
   255    2.62415    2.10000    0.25000    0.04396    0.00000   0.00000   0.00010   254  255  256     24
   256    2.66811    2.10000    0.25000    0.04396    0.00000   0.00000   0.00010   255  256  257     24
   257    2.71207    2.10000    0.25000    0.04396    0.00000   0.00000   0.00010   256  257  258     24
   258    2.75604    2.10000    0.25000    0.04396    0.00000   0.00000   0.00010   257  258  259     24
   259    2.80000    2.10000    0.25000    0.04396    0.00000   0.00000   0.00010   258  259  260     24
   260    2.84396    2.10000    0.25000    0.04396    0.00000   0.00000   0.00010   259  260  261     24
   261    2.88793    2.10000    0.25000    0.04396    0.00000   0.00000   0.00010   260  261  262     24
   262    2.93189    2.10000    0.25000    0.04396    0.00000   0.00000   0.00010   261  262  263     24
   263    2.97585    2.10000    0.25000    0.04396    0.00000   0.00000   0.00010   262  263  264     24
   264    3.01982    2.10000    0.25000    0.04396    0.00000   0.00000   0.00010   263  264    0     24
   265    2.58018    2.80000    0.25000    0.04396    0.00000   0.00000   0.00010     0  265  266     25
   266    2.62415    2.80000    0.25000    0.04396    0.00000   0.00000   0.00010   265  266  267     25
   267    2.66811    2.80000    0.25000    0.04396    0.00000   0.00000   0.00010   266  267  268     25
   268    2.71207    2.80000    0.25000    0.04396    0.00000   0.00000   0.00010   267  268  269     25
   269    2.75604    2.80000    0.25000    0.04396    0.00000   0.00000   0.00010   268  269  270     25
   270    2.80000    2.80000    0.25000    0.04396    0.00000   0.00000   0.00010   269  270  271     25
   271    2.84396    2.80000    0.25000    0.04396    0.00000   0.00000   0.00010   270  271  272     25
   272    2.88793    2.80000    0.25000    0.04396    0.00000   0.00000   0.00010   271  272  273     25
   273    2.93189    2.80000    0.25000    0.04396    0.00000   0.00000   0.00010   272  273  274     25
   274    2.97585    2.80000    0.25000    0.04396    0.00000   0.00000   0.00010   273  274  275     25
   275    3.01982    2.80000    0.25000    0.04396    0.00000   0.00000   0.00010   274  275    0     25






 ***** DATA CARD NO.   1 GN     1     0     0     0  0.00000E+00  0.00000E+00  0.00000E+00  0.00000E+00  0.00000E+00  0.00000E+00
 ***** DATA CARD NO.   2 EX     0     1     6     0  1.00000E+00  0.00000E+00  0.00000E+00  0.00000E+00  0.00000E+00  0.00000E+00
 ***** DATA CARD NO.   3 EX     0     2     6     0  1.00000E+00  0.00000E+00  0.00000E+00  0.00000E+00  0.00000E+00  0.00000E+00
 ***** DATA CARD NO.   4 EX     0     3     6     0  1.00000E+00  0.00000E+00  0.00000E+00  0.00000E+00  0.00000E+00  0.00000E+00
 ***** DATA CARD NO.   5 EX     0     4     6     0  1.00000E+00  0.00000E+00  0.00000E+00  0.00000E+00  0.00000E+00  0.00000E+00
 ***** DATA CARD NO.   6 EX     0     5     6     0  1.00000E+00  0.00000E+00  0.00000E+00  0.00000E+00  0.00000E+00  0.00000E+00
 ***** DATA CARD NO.   7 EX     0     6     6     0  1.00000E+00  0.00000E+00  0.00000E+00  0.00000E+00  0.00000E+00  0.00000E+00
 ***** DATA CARD NO.   8 EX     0     7     6     0  1.00000E+00  0.00000E+00  0.00000E+00  0.00000E+00  0.00000E+00  0.00000E+00
 ***** DATA CARD NO.   9 EX     0     8     6     0  1.00000E+00  0.00000E+00  0.00000E+00  0.00000E+00  0.00000E+00  0.00000E+00
 ***** DATA CARD NO.  10 EX     0     9     6     0  1.00000E+00  0.00000E+00  0.00000E+00  0.00000E+00  0.00000E+00  0.00000E+00
 ***** DATA CARD NO.  11 EX     0    10     6     0  1.00000E+00  0.00000E+00  0.00000E+00  0.00000E+00  0.00000E+00  0.00000E+00
 ***** DATA CARD NO.  12 EX     0    11     6     0  1.00000E+00  0.00000E+00  0.00000E+00  0.00000E+00  0.00000E+00  0.00000E+00
 ***** DATA CARD NO.  13 EX     0    12     6     0  1.00000E+00  0.00000E+00  0.00000E+00  0.00000E+00  0.00000E+00  0.00000E+00
 ***** DATA CARD NO.  14 EX     0    13     6     0  1.00000E+00  0.00000E+00  0.00000E+00  0.00000E+00  0.00000E+00  0.00000E+00
 ***** DATA CARD NO.  15 EX     0    14     6     0  1.00000E+00  0.00000E+00  0.00000E+00  0.00000E+00  0.00000E+00  0.00000E+00
 ***** DATA CARD NO.  16 EX     0    15     6     0  1.00000E+00  0.00000E+00  0.00000E+00  0.00000E+00  0.00000E+00  0.00000E+00
 ***** DATA CARD NO.  17 EX     0    16     6     0  1.00000E+00  0.00000E+00  0.00000E+00  0.00000E+00  0.00000E+00  0.00000E+00
 ***** DATA CARD NO.  18 EX     0    17     6     0  1.00000E+00  0.00000E+00  0.00000E+00  0.00000E+00  0.00000E+00  0.00000E+00
 ***** DATA CARD NO.  19 EX     0    18     6     0  1.00000E+00  0.00000E+00  0.00000E+00  0.00000E+00  0.00000E+00  0.00000E+00
 ***** DATA CARD NO.  20 EX     0    19     6     0  1.00000E+00  0.00000E+00  0.00000E+00  0.00000E+00  0.00000E+00  0.00000E+00
 ***** DATA CARD NO.  21 EX     0    20     6     0  1.00000E+00  0.00000E+00  0.00000E+00  0.00000E+00  0.00000E+00  0.00000E+00
 ***** DATA CARD NO.  22 EX     0    21     6     0  1.00000E+00  0.00000E+00  0.00000E+00  0.00000E+00  0.00000E+00  0.00000E+00
 ***** DATA CARD NO.  23 EX     0    22     6     0  1.00000E+00  0.00000E+00  0.00000E+00  0.00000E+00  0.00000E+00  0.00000E+00
 ***** DATA CARD NO.  24 EX     0    23     6     0  1.00000E+00  0.00000E+00  0.00000E+00  0.00000E+00  0.00000E+00  0.00000E+00
 ***** DATA CARD NO.  25 EX     0    24     6     0  1.00000E+00  0.00000E+00  0.00000E+00  0.00000E+00  0.00000E+00  0.00000E+00
 ***** DATA CARD NO.  26 EX     0    25     6     0  1.00000E+00  0.00000E+00  0.00000E+00  0.00000E+00  0.00000E+00  0.00000E+00
 ***** DATA CARD NO.  27 FR     0     0     0     0  3.00000E+02  0.00000E+00  0.00000E+00  0.00000E+00  0.00000E+00  0.00000E+00
 ***** DATA CARD NO.  28 RP     0    91     1  1000 -9.00000E+01  0.00000E+00  2.00000E+00  1.00000E+00  0.00000E+00  0.00000E+00




                                 - - - - - - FREQUENCY - - - - - -

                                    FREQUENCY= 3.0000E+02 MHZ
                                    WAVELENGTH= 9.9933E-01 METERS




                    APPROXIMATE INTEGRATION EMPLOYED FOR SEGMENTS MORE THAN   1.000 WAVELENGTHS APART



                               - - - STRUCTURE IMPEDANCE LOADING - - -

                                   THIS STRUCTURE IS NOT LOADED



                                  - - - ANTENNA ENVIRONMENT - - -

                                          PERFECT GROUND



                                - - - MATRIX TIMING - - -

                        FILL=   18.350 SEC.,  FACTOR=    4.390 SEC.



                                          - - - ANTENNA INPUT PARAMETERS - - -

   TAG   SEG.    VOLTAGE (VOLTS)         CURRENT (AMPS)         IMPEDANCE (OHMS)        ADMITTANCE (MHOS)      POWER
   NO.   NO.    REAL        IMAG.       REAL        IMAG.       REAL        IMAG.       REAL        IMAG.     (WATTS)
     1     6 1.00000E+00 0.00000E+00 1.17580E-02-6.33162E-04 8.48026E+01 4.56658E+00 1.17580E-02-6.33162E-04 5.87900E-03
     2    17 1.00000E+00 0.00000E+00 1.40205E-02 9.80603E-04 7.09770E+01-4.96417E+00 1.40205E-02 9.80603E-04 7.01025E-03
     3    28 1.00000E+00 0.00000E+00 1.38681E-02 2.37189E-03 7.00587E+01-1.19823E+01 1.38681E-02 2.37189E-03 6.93404E-03
     4    39 1.00000E+00 0.00000E+00 1.40205E-02 9.80603E-04 7.09770E+01-4.96417E+00 1.40205E-02 9.80603E-04 7.01025E-03
     5    50 1.00000E+00 0.00000E+00 1.17580E-02-6.33162E-04 8.48026E+01 4.56658E+00 1.17580E-02-6.33162E-04 5.87900E-03
     6    61 1.00000E+00 0.00000E+00 1.12713E-02 9.33045E-04 8.81172E+01-7.29440E+00 1.12713E-02 9.33045E-04 5.63564E-03
     7    72 1.00000E+00 0.00000E+00 1.34569E-02 2.59071E-03 7.16553E+01-1.37950E+01 1.34569E-02 2.59071E-03 6.72847E-03
     8    83 1.00000E+00 0.00000E+00 1.34165E-02 4.39502E-03 6.73119E+01-2.20503E+01 1.34165E-02 4.39502E-03 6.70824E-03
     9    94 1.00000E+00 0.00000E+00 1.34569E-02 2.59071E-03 7.16553E+01-1.37950E+01 1.34569E-02 2.59071E-03 6.72847E-03
    10   105 1.00000E+00 0.00000E+00 1.12713E-02 9.33045E-04 8.81172E+01-7.29440E+00 1.12713E-02 9.33045E-04 5.63564E-03
    11   116 1.00000E+00 0.00000E+00 1.04786E-02 4.70879E-04 9.52401E+01-4.27982E+00 1.04786E-02 4.70879E-04 5.23931E-03
    12   127 1.00000E+00 0.00000E+00 1.25233E-02 2.29672E-03 7.72527E+01-1.41678E+01 1.25233E-02 2.29672E-03 6.26166E-03
    13   138 1.00000E+00 0.00000E+00 1.25697E-02 3.71277E-03 7.31726E+01-2.16134E+01 1.25697E-02 3.71277E-03 6.28483E-03
    14   149 1.00000E+00 0.00000E+00 1.25233E-02 2.29672E-03 7.72527E+01-1.41678E+01 1.25233E-02 2.29672E-03 6.26166E-03
    15   160 1.00000E+00 0.00000E+00 1.04786E-02 4.70879E-04 9.52401E+01-4.27982E+00 1.04786E-02 4.70879E-04 5.23931E-03
    16   171 1.00000E+00 0.00000E+00 1.12713E-02 9.33045E-04 8.81172E+01-7.29440E+00 1.12713E-02 9.33045E-04 5.63564E-03
    17   182 1.00000E+00 0.00000E+00 1.34569E-02 2.59071E-03 7.16553E+01-1.37950E+01 1.34569E-02 2.59071E-03 6.72847E-03
    18   193 1.00000E+00 0.00000E+00 1.34165E-02 4.39502E-03 6.73119E+01-2.20503E+01 1.34165E-02 4.39502E-03 6.70824E-03
    19   204 1.00000E+00 0.00000E+00 1.34569E-02 2.59071E-03 7.16553E+01-1.37950E+01 1.34569E-02 2.59071E-03 6.72847E-03
    20   215 1.00000E+00 0.00000E+00 1.12713E-02 9.33045E-04 8.81172E+01-7.29440E+00 1.12713E-02 9.33045E-04 5.63564E-03
    21   226 1.00000E+00 0.00000E+00 1.17580E-02-6.33162E-04 8.48026E+01 4.56658E+00 1.17580E-02-6.33162E-04 5.87900E-03
    22   237 1.00000E+00 0.00000E+00 1.40205E-02 9.80603E-04 7.09770E+01-4.96417E+00 1.40205E-02 9.80603E-04 7.01025E-03
    23   248 1.00000E+00 0.00000E+00 1.38681E-02 2.37189E-03 7.00587E+01-1.19823E+01 1.38681E-02 2.37189E-03 6.93404E-03
    24   259 1.00000E+00 0.00000E+00 1.40205E-02 9.80603E-04 7.09770E+01-4.96417E+00 1.40205E-02 9.80603E-04 7.01025E-03
    25   270 1.00000E+00 0.00000E+00 1.17580E-02-6.33162E-04 8.48026E+01 4.56658E+00 1.17580E-02-6.33162E-04 5.87900E-03



                             - - - CURRENTS AND LOCATION - - -

                                 DISTANCES IN WAVELENGTHS


  SEG.  TAG    COORD. OF SEG. CENTER     SEG.            - - - CURRENT (AMPS) - - -
  NO.   NO.     X        Y        Z      LENGTH     REAL        IMAG.       MAG.        PHASE
     1    1  -0.2200   0.0000   0.2502  0.04399   1.9168E-03 -2.4791E-04  1.9327E-03   -7.370
     2    1  -0.1760   0.0000   0.2502  0.04399   5.2041E-03 -6.1806E-04  5.2407E-03   -6.773
     3    1  -0.1320   0.0000   0.2502  0.04399   7.9296E-03 -8.4487E-04  7.9745E-03   -6.082
     4    1  -0.0880   0.0000   0.2502  0.04399   1.0007E-02 -9.1920E-04  1.0049E-02   -5.248
     5    1  -0.0440   0.0000   0.2502  0.04399   1.1311E-02 -8.2297E-04  1.1341E-02   -4.162
     6    1   0.0000   0.0000   0.2502  0.04399   1.1758E-02 -6.3316E-04  1.1775E-02   -3.082
     7    1   0.0440   0.0000   0.2502  0.04399   1.1319E-02 -8.7205E-04  1.1352E-02   -4.406
     8    1   0.0880   0.0000   0.2502  0.04399   1.0022E-02 -1.0069E-03  1.0072E-02   -5.737
     9    1   0.1320   0.0000   0.2502  0.04399   7.9495E-03 -9.5078E-04  8.0062E-03   -6.820
    10    1   0.1760   0.0000   0.2502  0.04399   5.2242E-03 -7.1289E-04  5.2726E-03   -7.770
    11    1   0.2200   0.0000   0.2502  0.04399   1.9278E-03 -2.9281E-04  1.9499E-03   -8.637
    12    2  -0.2200   0.7005   0.2502  0.04399   2.2870E-03  1.6499E-05  2.2871E-03    0.413
    13    2  -0.1760   0.7005   0.2502  0.04399   6.2084E-03  9.8890E-05  6.2091E-03    0.913
    14    2  -0.1320   0.7005   0.2502  0.04399   9.4585E-03  2.4632E-04  9.4617E-03    1.492
    15    2  -0.0880   0.7005   0.2502  0.04399   1.1934E-02  4.5643E-04  1.1943E-02    2.190
    16    2  -0.0440   0.7005   0.2502  0.04399   1.3488E-02  7.3060E-04  1.3508E-02    3.100
    17    2   0.0000   0.7005   0.2502  0.04399   1.4020E-02  9.8060E-04  1.4055E-02    4.001
    18    2   0.0440   0.7005   0.2502  0.04399   1.3496E-02  6.8038E-04  1.3513E-02    2.886
    19    2   0.0880   0.7005   0.2502  0.04399   1.1948E-02  3.6683E-04  1.1954E-02    1.759
    20    2   0.1320   0.7005   0.2502  0.04399   9.4770E-03  1.3833E-04  9.4780E-03    0.836
    21    2   0.1760   0.7005   0.2502  0.04399   6.2277E-03  2.5281E-06  6.2277E-03    0.023
    22    2   0.2200   0.7005   0.2502  0.04399   2.2980E-03 -2.8908E-05  2.2981E-03   -0.721
    23    3  -0.2200   1.4009   0.2502  0.04399   2.2601E-03  2.4369E-04  2.2732E-03    6.154
    24    3  -0.1760   1.4009   0.2502  0.04399   6.1366E-03  7.1542E-04  6.1781E-03    6.650
    25    3  -0.1320   1.4009   0.2502  0.04399   9.3510E-03  1.1854E-03  9.4259E-03    7.224
    26    3  -0.0880   1.4009   0.2502  0.04399   1.1801E-02  1.6410E-03  1.1914E-02    7.917
    27    3  -0.0440   1.4009   0.2502  0.04399   1.3340E-02  2.0692E-03  1.3499E-02    8.817
    28    3   0.0000   1.4009   0.2502  0.04399   1.3868E-02  2.3719E-03  1.4069E-02    9.706
    29    3   0.0440   1.4009   0.2502  0.04399   1.3351E-02  2.0195E-03  1.3503E-02    8.602
    30    3   0.0880   1.4009   0.2502  0.04399   1.1822E-02  1.5524E-03  1.1923E-02    7.481
    31    3   0.1320   1.4009   0.2502  0.04399   9.3781E-03  1.0789E-03  9.4400E-03    6.562
    32    3   0.1760   1.4009   0.2502  0.04399   6.1636E-03  6.2073E-04  6.1948E-03    5.751
    33    3   0.2200   1.4009   0.2502  0.04399   2.2747E-03  1.9930E-04  2.2834E-03    5.007
    34    4  -0.2200   2.1014   0.2502  0.04399   2.2870E-03  1.6499E-05  2.2871E-03    0.413
    35    4  -0.1760   2.1014   0.2502  0.04399   6.2084E-03  9.8890E-05  6.2091E-03    0.913
    36    4  -0.1320   2.1014   0.2502  0.04399   9.4585E-03  2.4632E-04  9.4617E-03    1.492
    37    4  -0.0880   2.1014   0.2502  0.04399   1.1934E-02  4.5643E-04  1.1943E-02    2.190
    38    4  -0.0440   2.1014   0.2502  0.04399   1.3488E-02  7.3060E-04  1.3508E-02    3.100
    39    4   0.0000   2.1014   0.2502  0.04399   1.4020E-02  9.8060E-04  1.4055E-02    4.001
    40    4   0.0440   2.1014   0.2502  0.04399   1.3496E-02  6.8038E-04  1.3513E-02    2.886
    41    4   0.0880   2.1014   0.2502  0.04399   1.1948E-02  3.6683E-04  1.1954E-02    1.759
    42    4   0.1320   2.1014   0.2502  0.04399   9.4770E-03  1.3833E-04  9.4780E-03    0.836
    43    4   0.1760   2.1014   0.2502  0.04399   6.2277E-03  2.5281E-06  6.2277E-03    0.023
    44    4   0.2200   2.1014   0.2502  0.04399   2.2980E-03 -2.8908E-05  2.2981E-03   -0.721
    45    5  -0.2200   2.8019   0.2502  0.04399   1.9168E-03 -2.4791E-04  1.9327E-03   -7.370
    46    5  -0.1760   2.8019   0.2502  0.04399   5.2041E-03 -6.1806E-04  5.2407E-03   -6.773
    47    5  -0.1320   2.8019   0.2502  0.04399   7.9296E-03 -8.4487E-04  7.9745E-03   -6.082
    48    5  -0.0880   2.8019   0.2502  0.04399   1.0007E-02 -9.1920E-04  1.0049E-02   -5.248
    49    5  -0.0440   2.8019   0.2502  0.04399   1.1311E-02 -8.2297E-04  1.1341E-02   -4.162
    50    5   0.0000   2.8019   0.2502  0.04399   1.1758E-02 -6.3316E-04  1.1775E-02   -3.082
    51    5   0.0440   2.8019   0.2502  0.04399   1.1319E-02 -8.7205E-04  1.1352E-02   -4.406
    52    5   0.0880   2.8019   0.2502  0.04399   1.0022E-02 -1.0069E-03  1.0072E-02   -5.737
    53    5   0.1320   2.8019   0.2502  0.04399   7.9495E-03 -9.5078E-04  8.0062E-03   -6.820
    54    5   0.1760   2.8019   0.2502  0.04399   5.2242E-03 -7.1289E-04  5.2726E-03   -7.770
    55    5   0.2200   2.8019   0.2502  0.04399   1.9278E-03 -2.9281E-04  1.9499E-03   -8.637
    56    6   0.4805   0.0000   0.2502  0.04399   1.8446E-03 -2.8150E-05  1.8448E-03   -0.874
    57    6   0.5245   0.0000   0.2502  0.04399   4.9994E-03  2.8667E-06  4.9994E-03    0.033
    58    6   0.5685   0.0000   0.2502  0.04399   7.6092E-03  1.3378E-04  7.6104E-03    1.007
    59    6   0.6125   0.0000   0.2502  0.04399   9.5961E-03  3.5199E-04  9.6025E-03    2.101
    60    6   0.6565   0.0000   0.2502  0.04399   1.0843E-02  6.5051E-04  1.0863E-02    3.433
    61    6   0.7005   0.0000   0.2502  0.04399   1.1271E-02  9.3304E-04  1.1310E-02    4.732
    62    6   0.7445   0.0000   0.2502  0.04399   1.0851E-02  6.6596E-04  1.0872E-02    3.512
    63    6   0.7885   0.0000   0.2502  0.04399   9.6103E-03  3.7961E-04  9.6178E-03    2.262
    64    6   0.8324   0.0000   0.2502  0.04399   7.6260E-03  1.6718E-04  7.6278E-03    1.256
    65    6   0.8764   0.0000   0.2502  0.04399   5.0138E-03  3.2852E-05  5.0140E-03    0.375
    66    6   0.9204   0.0000   0.2502  0.04399   1.8511E-03 -1.3903E-05  1.8512E-03   -0.430
    67    7   0.4805   0.7005   0.2502  0.04399   2.2018E-03  2.4290E-04  2.2151E-03    6.295
    68    7   0.5245   0.7005   0.2502  0.04399   5.9676E-03  7.3767E-04  6.0131E-03    7.047
    69    7   0.5685   0.7005   0.2502  0.04399   9.0834E-03  1.2524E-03  9.1693E-03    7.850
    70    7   0.6125   0.7005   0.2502  0.04399   1.1456E-02  1.7629E-03  1.1590E-02    8.749
    71    7   0.6565   0.7005   0.2502  0.04399   1.2945E-02  2.2450E-03  1.3139E-02    9.839
    72    7   0.7005   0.7005   0.2502  0.04399   1.3457E-02  2.5907E-03  1.3704E-02   10.897
    73    7   0.7445   0.7005   0.2502  0.04399   1.2956E-02  2.2621E-03  1.3152E-02    9.904
    74    7   0.7885   0.7005   0.2502  0.04399   1.1475E-02  1.7934E-03  1.1615E-02    8.882
    75    7   0.8324   0.7005   0.2502  0.04399   9.1065E-03  1.2893E-03  9.1973E-03    8.058
    76    7   0.8764   0.7005   0.2502  0.04399   5.9877E-03  7.7076E-04  6.0371E-03    7.335
    77    7   0.9204   0.7005   0.2502  0.04399   2.2109E-03  2.5863E-04  2.2259E-03    6.672
    78    8   0.4805   1.4009   0.2502  0.04399   2.1959E-03  5.3792E-04  2.2608E-03   13.764
    79    8   0.5245   1.4009   0.2502  0.04399   5.9513E-03  1.5376E-03  6.1467E-03   14.486
    80    8   0.5685   1.4009   0.2502  0.04399   9.0578E-03  2.4703E-03  9.3886E-03   15.255
    81    8   0.6125   1.4009   0.2502  0.04399   1.1423E-02  3.2990E-03  1.1889E-02   16.109
    82    8   0.6565   1.4009   0.2502  0.04399   1.2907E-02  3.9809E-03  1.3507E-02   17.141
    83    8   0.7005   1.4009   0.2502  0.04399   1.3416E-02  4.3950E-03  1.4118E-02   18.138
    84    8   0.7445   1.4009   0.2502  0.04399   1.2917E-02  3.9990E-03  1.3522E-02   17.202
    85    8   0.7885   1.4009   0.2502  0.04399   1.1440E-02  3.3314E-03  1.1915E-02   16.236
    86    8   0.8324   1.4009   0.2502  0.04399   9.0779E-03  2.5094E-03  9.4184E-03   15.453
    87    8   0.8764   1.4009   0.2502  0.04399   5.9687E-03  1.5727E-03  6.1724E-03   14.762
    88    8   0.9204   1.4009   0.2502  0.04399   2.2038E-03  5.5460E-04  2.2725E-03   14.126
    89    9   0.4805   2.1014   0.2502  0.04399   2.2018E-03  2.4290E-04  2.2151E-03    6.295
    90    9   0.5245   2.1014   0.2502  0.04399   5.9676E-03  7.3767E-04  6.0131E-03    7.047
    91    9   0.5685   2.1014   0.2502  0.04399   9.0834E-03  1.2524E-03  9.1693E-03    7.850
    92    9   0.6125   2.1014   0.2502  0.04399   1.1456E-02  1.7629E-03  1.1590E-02    8.749
    93    9   0.6565   2.1014   0.2502  0.04399   1.2945E-02  2.2450E-03  1.3139E-02    9.839
    94    9   0.7005   2.1014   0.2502  0.04399   1.3457E-02  2.5907E-03  1.3704E-02   10.897
    95    9   0.7445   2.1014   0.2502  0.04399   1.2956E-02  2.2621E-03  1.3152E-02    9.904
    96    9   0.7885   2.1014   0.2502  0.04399   1.1475E-02  1.7934E-03  1.1615E-02    8.882
    97    9   0.8324   2.1014   0.2502  0.04399   9.1065E-03  1.2893E-03  9.1973E-03    8.058
    98    9   0.8764   2.1014   0.2502  0.04399   5.9877E-03  7.7076E-04  6.0371E-03    7.335
    99    9   0.9204   2.1014   0.2502  0.04399   2.2109E-03  2.5863E-04  2.2259E-03    6.672
   100   10   0.4805   2.8019   0.2502  0.04399   1.8446E-03 -2.8150E-05  1.8448E-03   -0.874
   101   10   0.5245   2.8019   0.2502  0.04399   4.9994E-03  2.8667E-06  4.9994E-03    0.033
   102   10   0.5685   2.8019   0.2502  0.04399   7.6092E-03  1.3378E-04  7.6104E-03    1.007
   103   10   0.6125   2.8019   0.2502  0.04399   9.5961E-03  3.5199E-04  9.6025E-03    2.101
   104   10   0.6565   2.8019   0.2502  0.04399   1.0843E-02  6.5051E-04  1.0863E-02    3.433
   105   10   0.7005   2.8019   0.2502  0.04399   1.1271E-02  9.3304E-04  1.1310E-02    4.732
   106   10   0.7445   2.8019   0.2502  0.04399   1.0851E-02  6.6596E-04  1.0872E-02    3.512
   107   10   0.7885   2.8019   0.2502  0.04399   9.6103E-03  3.7961E-04  9.6178E-03    2.262
   108   10   0.8324   2.8019   0.2502  0.04399   7.6260E-03  1.6718E-04  7.6278E-03    1.256
   109   10   0.8764   2.8019   0.2502  0.04399   5.0138E-03  3.2852E-05  5.0140E-03    0.375
   110   10   0.9204   2.8019   0.2502  0.04399   1.8511E-03 -1.3903E-05  1.8512E-03   -0.430
   111   11   1.1810   0.0000   0.2502  0.04399   1.7196E-03 -9.3622E-05  1.7221E-03   -3.116
   112   11   1.2250   0.0000   0.2502  0.04399   4.6573E-03 -1.8215E-04  4.6609E-03   -2.240
   113   11   1.2690   0.0000   0.2502  0.04399   7.0842E-03 -1.5752E-04  7.0859E-03   -1.274
   114   11   1.3129   0.0000   0.2502  0.04399   8.9291E-03 -2.5589E-05  8.9291E-03   -0.164
   115   11   1.3569   0.0000   0.2502  0.04399   1.0085E-02  2.1412E-04  1.0087E-02    1.216
   116   11   1.4009   0.0000   0.2502  0.04399   1.0479E-02  4.7088E-04  1.0489E-02    2.573
   117   11   1.4449   0.0000   0.2502  0.04399   1.0085E-02  2.1412E-04  1.0087E-02    1.216
   118   11   1.4889   0.0000   0.2502  0.04399   8.9291E-03 -2.5589E-05  8.9291E-03   -0.164
   119   11   1.5329   0.0000   0.2502  0.04399   7.0842E-03 -1.5752E-04  7.0859E-03   -1.274
   120   11   1.5769   0.0000   0.2502  0.04399   4.6573E-03 -1.8215E-04  4.6609E-03   -2.240
   121   11   1.6209   0.0000   0.2502  0.04399   1.7196E-03 -9.3622E-05  1.7221E-03   -3.116
   122   12   1.1810   0.7005   0.2502  0.04399   2.0554E-03  2.0577E-04  2.0657E-03    5.717
   123   12   1.2250   0.7005   0.2502  0.04399   5.5666E-03  6.2898E-04  5.6020E-03    6.447
   124   12   1.2690   0.7005   0.2502  0.04399   8.4670E-03  1.0766E-03  8.5351E-03    7.246
   125   12   1.3129   0.7005   0.2502  0.04399   1.0672E-02  1.5301E-03  1.0781E-02    8.159
   126   12   1.3569   0.7005   0.2502  0.04399   1.2053E-02  1.9713E-03  1.2213E-02    9.289
   127   12   1.4009   0.7005   0.2502  0.04399   1.2523E-02  2.2967E-03  1.2732E-02   10.392
   128   12   1.4449   0.7005   0.2502  0.04399   1.2053E-02  1.9713E-03  1.2213E-02    9.289
   129   12   1.4889   0.7005   0.2502  0.04399   1.0672E-02  1.5301E-03  1.0781E-02    8.159
   130   12   1.5329   0.7005   0.2502  0.04399   8.4670E-03  1.0766E-03  8.5351E-03    7.246
   131   12   1.5769   0.7005   0.2502  0.04399   5.5666E-03  6.2898E-04  5.6020E-03    6.447
   132   12   1.6209   0.7005   0.2502  0.04399   2.0554E-03  2.0577E-04  2.0657E-03    5.717
   133   13   1.1810   1.4009   0.2502  0.04399   2.0629E-03  4.3829E-04  2.1090E-03   11.995
   134   13   1.2250   1.4009   0.2502  0.04399   5.5870E-03  1.2586E-03  5.7270E-03   12.695
   135   13   1.2690   1.4009   0.2502  0.04399   8.4981E-03  2.0341E-03  8.7382E-03   13.461
   136   13   1.3129   1.4009   0.2502  0.04399   1.0711E-02  2.7368E-03  1.1055E-02   14.333
   137   13   1.3569   1.4009   0.2502  0.04399   1.2097E-02  3.3342E-03  1.2548E-02   15.409
   138   13   1.4009   1.4009   0.2502  0.04399   1.2570E-02  3.7128E-03  1.3107E-02   16.456
   139   13   1.4449   1.4009   0.2502  0.04399   1.2097E-02  3.3342E-03  1.2548E-02   15.409
   140   13   1.4889   1.4009   0.2502  0.04399   1.0711E-02  2.7368E-03  1.1055E-02   14.333
   141   13   1.5329   1.4009   0.2502  0.04399   8.4981E-03  2.0341E-03  8.7382E-03   13.461
   142   13   1.5769   1.4009   0.2502  0.04399   5.5870E-03  1.2586E-03  5.7270E-03   12.695
   143   13   1.6209   1.4009   0.2502  0.04399   2.0629E-03  4.3829E-04  2.1090E-03   11.995
   144   14   1.1810   2.1014   0.2502  0.04399   2.0554E-03  2.0577E-04  2.0657E-03    5.717
   145   14   1.2250   2.1014   0.2502  0.04399   5.5666E-03  6.2898E-04  5.6020E-03    6.447
   146   14   1.2690   2.1014   0.2502  0.04399   8.4670E-03  1.0766E-03  8.5351E-03    7.246
   147   14   1.3129   2.1014   0.2502  0.04399   1.0672E-02  1.5301E-03  1.0781E-02    8.159
   148   14   1.3569   2.1014   0.2502  0.04399   1.2053E-02  1.9713E-03  1.2213E-02    9.289
   149   14   1.4009   2.1014   0.2502  0.04399   1.2523E-02  2.2967E-03  1.2732E-02   10.392
   150   14   1.4449   2.1014   0.2502  0.04399   1.2053E-02  1.9713E-03  1.2213E-02    9.289
   151   14   1.4889   2.1014   0.2502  0.04399   1.0672E-02  1.5301E-03  1.0781E-02    8.159
   152   14   1.5329   2.1014   0.2502  0.04399   8.4670E-03  1.0766E-03  8.5351E-03    7.246
   153   14   1.5769   2.1014   0.2502  0.04399   5.5666E-03  6.2898E-04  5.6020E-03    6.447
   154   14   1.6209   2.1014   0.2502  0.04399   2.0554E-03  2.0577E-04  2.0657E-03    5.717
   155   15   1.1810   2.8019   0.2502  0.04399   1.7196E-03 -9.3622E-05  1.7221E-03   -3.116
   156   15   1.2250   2.8019   0.2502  0.04399   4.6573E-03 -1.8215E-04  4.6609E-03   -2.240
   157   15   1.2690   2.8019   0.2502  0.04399   7.0842E-03 -1.5752E-04  7.0859E-03   -1.274
   158   15   1.3129   2.8019   0.2502  0.04399   8.9291E-03 -2.5589E-05  8.9291E-03   -0.164
   159   15   1.3569   2.8019   0.2502  0.04399   1.0085E-02  2.1412E-04  1.0087E-02    1.216
   160   15   1.4009   2.8019   0.2502  0.04399   1.0479E-02  4.7088E-04  1.0489E-02    2.573
   161   15   1.4449   2.8019   0.2502  0.04399   1.0085E-02  2.1412E-04  1.0087E-02    1.216
   162   15   1.4889   2.8019   0.2502  0.04399   8.9291E-03 -2.5589E-05  8.9291E-03   -0.164
   163   15   1.5329   2.8019   0.2502  0.04399   7.0842E-03 -1.5752E-04  7.0859E-03   -1.274
   164   15   1.5769   2.8019   0.2502  0.04399   4.6573E-03 -1.8215E-04  4.6609E-03   -2.240
   165   15   1.6209   2.8019   0.2502  0.04399   1.7196E-03 -9.3622E-05  1.7221E-03   -3.116
   166   16   1.8814   0.0000   0.2502  0.04399   1.8511E-03 -1.3903E-05  1.8512E-03   -0.430
   167   16   1.9254   0.0000   0.2502  0.04399   5.0138E-03  3.2852E-05  5.0140E-03    0.375
   168   16   1.9694   0.0000   0.2502  0.04399   7.6260E-03  1.6718E-04  7.6278E-03    1.256
   169   16   2.0134   0.0000   0.2502  0.04399   9.6103E-03  3.7961E-04  9.6178E-03    2.262
   170   16   2.0574   0.0000   0.2502  0.04399   1.0851E-02  6.6596E-04  1.0872E-02    3.512
   171   16   2.1014   0.0000   0.2502  0.04399   1.1271E-02  9.3304E-04  1.1310E-02    4.732
   172   16   2.1454   0.0000   0.2502  0.04399   1.0843E-02  6.5051E-04  1.0863E-02    3.433
   173   16   2.1894   0.0000   0.2502  0.04399   9.5961E-03  3.5199E-04  9.6025E-03    2.101
   174   16   2.2334   0.0000   0.2502  0.04399   7.6092E-03  1.3378E-04  7.6104E-03    1.007
   175   16   2.2774   0.0000   0.2502  0.04399   4.9994E-03  2.8667E-06  4.9994E-03    0.033
   176   16   2.3214   0.0000   0.2502  0.04399   1.8446E-03 -2.8150E-05  1.8448E-03   -0.874
   177   17   1.8814   0.7005   0.2502  0.04399   2.2109E-03  2.5863E-04  2.2259E-03    6.672
   178   17   1.9254   0.7005   0.2502  0.04399   5.9877E-03  7.7076E-04  6.0371E-03    7.335
   179   17   1.9694   0.7005   0.2502  0.04399   9.1065E-03  1.2893E-03  9.1973E-03    8.058
   180   17   2.0134   0.7005   0.2502  0.04399   1.1475E-02  1.7934E-03  1.1615E-02    8.882
   181   17   2.0574   0.7005   0.2502  0.04399   1.2956E-02  2.2621E-03  1.3152E-02    9.904
   182   17   2.1014   0.7005   0.2502  0.04399   1.3457E-02  2.5907E-03  1.3704E-02   10.897
   183   17   2.1454   0.7005   0.2502  0.04399   1.2945E-02  2.2450E-03  1.3139E-02    9.839
   184   17   2.1894   0.7005   0.2502  0.04399   1.1456E-02  1.7629E-03  1.1590E-02    8.749
   185   17   2.2334   0.7005   0.2502  0.04399   9.0834E-03  1.2524E-03  9.1693E-03    7.850
   186   17   2.2774   0.7005   0.2502  0.04399   5.9676E-03  7.3767E-04  6.0131E-03    7.047
   187   17   2.3214   0.7005   0.2502  0.04399   2.2018E-03  2.4290E-04  2.2151E-03    6.295
   188   18   1.8814   1.4009   0.2502  0.04399   2.2038E-03  5.5460E-04  2.2725E-03   14.126
   189   18   1.9254   1.4009   0.2502  0.04399   5.9687E-03  1.5727E-03  6.1724E-03   14.762
   190   18   1.9694   1.4009   0.2502  0.04399   9.0779E-03  2.5094E-03  9.4184E-03   15.453
   191   18   2.0134   1.4009   0.2502  0.04399   1.1440E-02  3.3314E-03  1.1915E-02   16.236
   192   18   2.0574   1.4009   0.2502  0.04399   1.2917E-02  3.9990E-03  1.3522E-02   17.202
   193   18   2.1014   1.4009   0.2502  0.04399   1.3416E-02  4.3950E-03  1.4118E-02   18.138
   194   18   2.1454   1.4009   0.2502  0.04399   1.2907E-02  3.9809E-03  1.3507E-02   17.141
   195   18   2.1894   1.4009   0.2502  0.04399   1.1423E-02  3.2990E-03  1.1889E-02   16.109
   196   18   2.2334   1.4009   0.2502  0.04399   9.0578E-03  2.4703E-03  9.3886E-03   15.255
   197   18   2.2774   1.4009   0.2502  0.04399   5.9513E-03  1.5376E-03  6.1467E-03   14.486
   198   18   2.3214   1.4009   0.2502  0.04399   2.1959E-03  5.3792E-04  2.2608E-03   13.764
   199   19   1.8814   2.1014   0.2502  0.04399   2.2109E-03  2.5863E-04  2.2259E-03    6.672
   200   19   1.9254   2.1014   0.2502  0.04399   5.9877E-03  7.7076E-04  6.0371E-03    7.335
   201   19   1.9694   2.1014   0.2502  0.04399   9.1065E-03  1.2893E-03  9.1973E-03    8.058
   202   19   2.0134   2.1014   0.2502  0.04399   1.1475E-02  1.7934E-03  1.1615E-02    8.882
   203   19   2.0574   2.1014   0.2502  0.04399   1.2956E-02  2.2621E-03  1.3152E-02    9.904
   204   19   2.1014   2.1014   0.2502  0.04399   1.3457E-02  2.5907E-03  1.3704E-02   10.897
   205   19   2.1454   2.1014   0.2502  0.04399   1.2945E-02  2.2450E-03  1.3139E-02    9.839
   206   19   2.1894   2.1014   0.2502  0.04399   1.1456E-02  1.7629E-03  1.1590E-02    8.749
   207   19   2.2334   2.1014   0.2502  0.04399   9.0834E-03  1.2524E-03  9.1693E-03    7.850
   208   19   2.2774   2.1014   0.2502  0.04399   5.9676E-03  7.3767E-04  6.0131E-03    7.047
   209   19   2.3214   2.1014   0.2502  0.04399   2.2018E-03  2.4290E-04  2.2151E-03    6.295
   210   20   1.8814   2.8019   0.2502  0.04399   1.8511E-03 -1.3903E-05  1.8512E-03   -0.430
   211   20   1.9254   2.8019   0.2502  0.04399   5.0138E-03  3.2852E-05  5.0140E-03    0.375
   212   20   1.9694   2.8019   0.2502  0.04399   7.6260E-03  1.6718E-04  7.6278E-03    1.256
   213   20   2.0134   2.8019   0.2502  0.04399   9.6103E-03  3.7961E-04  9.6178E-03    2.262
   214   20   2.0574   2.8019   0.2502  0.04399   1.0851E-02  6.6596E-04  1.0872E-02    3.512
   215   20   2.1014   2.8019   0.2502  0.04399   1.1271E-02  9.3304E-04  1.1310E-02    4.732
   216   20   2.1454   2.8019   0.2502  0.04399   1.0843E-02  6.5051E-04  1.0863E-02    3.433
   217   20   2.1894   2.8019   0.2502  0.04399   9.5961E-03  3.5199E-04  9.6025E-03    2.101
   218   20   2.2334   2.8019   0.2502  0.04399   7.6092E-03  1.3378E-04  7.6104E-03    1.007
   219   20   2.2774   2.8019   0.2502  0.04399   4.9994E-03  2.8667E-06  4.9994E-03    0.033
   220   20   2.3214   2.8019   0.2502  0.04399   1.8446E-03 -2.8150E-05  1.8448E-03   -0.874
   221   21   2.5819   0.0000   0.2502  0.04399   1.9278E-03 -2.9281E-04  1.9499E-03   -8.637
   222   21   2.6259   0.0000   0.2502  0.04399   5.2242E-03 -7.1289E-04  5.2726E-03   -7.770
   223   21   2.6699   0.0000   0.2502  0.04399   7.9495E-03 -9.5078E-04  8.0062E-03   -6.820
   224   21   2.7139   0.0000   0.2502  0.04399   1.0022E-02 -1.0069E-03  1.0072E-02   -5.737
   225   21   2.7579   0.0000   0.2502  0.04399   1.1319E-02 -8.7205E-04  1.1352E-02   -4.406
   226   21   2.8019   0.0000   0.2502  0.04399   1.1758E-02 -6.3316E-04  1.1775E-02   -3.082
   227   21   2.8459   0.0000   0.2502  0.04399   1.1311E-02 -8.2297E-04  1.1341E-02   -4.162
   228   21   2.8899   0.0000   0.2502  0.04399   1.0007E-02 -9.1920E-04  1.0049E-02   -5.248
   229   21   2.9338   0.0000   0.2502  0.04399   7.9296E-03 -8.4487E-04  7.9745E-03   -6.082
   230   21   2.9778   0.0000   0.2502  0.04399   5.2041E-03 -6.1806E-04  5.2407E-03   -6.773
   231   21   3.0218   0.0000   0.2502  0.04399   1.9168E-03 -2.4791E-04  1.9327E-03   -7.370
   232   22   2.5819   0.7005   0.2502  0.04399   2.2980E-03 -2.8908E-05  2.2981E-03   -0.721
   233   22   2.6259   0.7005   0.2502  0.04399   6.2277E-03  2.5281E-06  6.2277E-03    0.023
   234   22   2.6699   0.7005   0.2502  0.04399   9.4770E-03  1.3833E-04  9.4780E-03    0.836
   235   22   2.7139   0.7005   0.2502  0.04399   1.1948E-02  3.6683E-04  1.1954E-02    1.759
   236   22   2.7579   0.7005   0.2502  0.04399   1.3496E-02  6.8038E-04  1.3513E-02    2.886
   237   22   2.8019   0.7005   0.2502  0.04399   1.4020E-02  9.8060E-04  1.4055E-02    4.001
   238   22   2.8459   0.7005   0.2502  0.04399   1.3488E-02  7.3060E-04  1.3508E-02    3.100
   239   22   2.8899   0.7005   0.2502  0.04399   1.1934E-02  4.5643E-04  1.1943E-02    2.190
   240   22   2.9338   0.7005   0.2502  0.04399   9.4585E-03  2.4632E-04  9.4617E-03    1.492
   241   22   2.9778   0.7005   0.2502  0.04399   6.2084E-03  9.8890E-05  6.2091E-03    0.913
   242   22   3.0218   0.7005   0.2502  0.04399   2.2870E-03  1.6499E-05  2.2871E-03    0.413
   243   23   2.5819   1.4009   0.2502  0.04399   2.2747E-03  1.9930E-04  2.2834E-03    5.007
   244   23   2.6259   1.4009   0.2502  0.04399   6.1636E-03  6.2073E-04  6.1948E-03    5.751
   245   23   2.6699   1.4009   0.2502  0.04399   9.3781E-03  1.0789E-03  9.4400E-03    6.562
   246   23   2.7139   1.4009   0.2502  0.04399   1.1822E-02  1.5524E-03  1.1923E-02    7.481
   247   23   2.7579   1.4009   0.2502  0.04399   1.3351E-02  2.0195E-03  1.3503E-02    8.602
   248   23   2.8019   1.4009   0.2502  0.04399   1.3868E-02  2.3719E-03  1.4069E-02    9.706
   249   23   2.8459   1.4009   0.2502  0.04399   1.3340E-02  2.0692E-03  1.3499E-02    8.817
   250   23   2.8899   1.4009   0.2502  0.04399   1.1801E-02  1.6410E-03  1.1914E-02    7.917
   251   23   2.9338   1.4009   0.2502  0.04399   9.3510E-03  1.1854E-03  9.4259E-03    7.224
   252   23   2.9778   1.4009   0.2502  0.04399   6.1366E-03  7.1542E-04  6.1781E-03    6.650
   253   23   3.0218   1.4009   0.2502  0.04399   2.2601E-03  2.4369E-04  2.2732E-03    6.154
   254   24   2.5819   2.1014   0.2502  0.04399   2.2980E-03 -2.8908E-05  2.2981E-03   -0.721
   255   24   2.6259   2.1014   0.2502  0.04399   6.2277E-03  2.5281E-06  6.2277E-03    0.023
   256   24   2.6699   2.1014   0.2502  0.04399   9.4770E-03  1.3833E-04  9.4780E-03    0.836
   257   24   2.7139   2.1014   0.2502  0.04399   1.1948E-02  3.6683E-04  1.1954E-02    1.759
   258   24   2.7579   2.1014   0.2502  0.04399   1.3496E-02  6.8038E-04  1.3513E-02    2.886
   259   24   2.8019   2.1014   0.2502  0.04399   1.4020E-02  9.8060E-04  1.4055E-02    4.001
   260   24   2.8459   2.1014   0.2502  0.04399   1.3488E-02  7.3060E-04  1.3508E-02    3.100
   261   24   2.8899   2.1014   0.2502  0.04399   1.1934E-02  4.5643E-04  1.1943E-02    2.190
   262   24   2.9338   2.1014   0.2502  0.04399   9.4585E-03  2.4632E-04  9.4617E-03    1.492
   263   24   2.9778   2.1014   0.2502  0.04399   6.2084E-03  9.8890E-05  6.2091E-03    0.913
   264   24   3.0218   2.1014   0.2502  0.04399   2.2870E-03  1.6499E-05  2.2871E-03    0.413
   265   25   2.5819   2.8019   0.2502  0.04399   1.9278E-03 -2.9281E-04  1.9499E-03   -8.637
   266   25   2.6259   2.8019   0.2502  0.04399   5.2242E-03 -7.1289E-04  5.2726E-03   -7.770
   267   25   2.6699   2.8019   0.2502  0.04399   7.9495E-03 -9.5078E-04  8.0062E-03   -6.820
   268   25   2.7139   2.8019   0.2502  0.04399   1.0022E-02 -1.0069E-03  1.0072E-02   -5.737
   269   25   2.7579   2.8019   0.2502  0.04399   1.1319E-02 -8.7205E-04  1.1352E-02   -4.406
   270   25   2.8019   2.8019   0.2502  0.04399   1.1758E-02 -6.3316E-04  1.1775E-02   -3.082
   271   25   2.8459   2.8019   0.2502  0.04399   1.1311E-02 -8.2297E-04  1.1341E-02   -4.162
   272   25   2.8899   2.8019   0.2502  0.04399   1.0007E-02 -9.1920E-04  1.0049E-02   -5.248
   273   25   2.9338   2.8019   0.2502  0.04399   7.9296E-03 -8.4487E-04  7.9745E-03   -6.082
   274   25   2.9778   2.8019   0.2502  0.04399   5.2041E-03 -6.1806E-04  5.2407E-03   -6.773
   275   25   3.0218   2.8019   0.2502  0.04399   1.9168E-03 -2.4791E-04  1.9327E-03   -7.370



                                        - - - POWER BUDGET - - -

                                           INPUT POWER   = 1.5758E-01 WATTS
                                           RADIATED POWER= 1.5758E-01 WATTS
                                           STRUCTURE LOSS= 0.0000E+00 WATTS
                                           NETWORK LOSS  = 0.0000E+00 WATTS
                                           EFFICIENCY    = 100.00 PERCENT



                                                - - - RADIATION PATTERNS - - -

  - - ANGLES - -           - POWER GAINS -       - - - POLARIZATION - - -    - - - E(THETA) - - -    - - - E(PHI) - - -
  THETA     PHI        VERT.   HOR.    TOTAL      AXIAL     TILT   SENSE     MAGNITUDE    PHASE      MAGNITUDE    PHASE 
 DEGREES  DEGREES       DB      DB      DB        RATIO     DEG.              VOLTS/M    DEGREES      VOLTS/M    DEGREES
  -90.00     0.00    -999.99 -999.99 -999.99    0.00000     0.00            3.31892E-22    36.16    0.00000E+00     0.00
  -88.00     0.00     -45.95 -999.99  -45.95    0.00000     0.00  LINEAR    1.55011E-02    36.49    0.00000E+00     0.00
  -86.00     0.00     -33.95 -999.99  -33.95    0.00000     0.00  LINEAR    6.16828E-02    37.50    0.00000E+00     0.00
  -84.00     0.00     -26.99 -999.99  -26.99    0.00000     0.00  LINEAR    1.37481E-01    39.18    0.00000E+00     0.00
  -82.00     0.00     -22.12 -999.99  -22.12    0.00000     0.00  LINEAR    2.40800E-01    41.52    0.00000E+00     0.00
  -80.00     0.00     -18.43 -999.99  -18.43    0.00000     0.00  LINEAR    3.68072E-01    44.54    0.00000E+00     0.00
  -78.00     0.00     -15.54 -999.99  -15.54    0.00000     0.00  LINEAR    5.13711E-01    48.23    0.00000E+00     0.00
  -76.00     0.00     -13.24 -999.99  -13.24    0.00000     0.00  LINEAR    6.69552E-01    52.61    0.00000E+00     0.00
  -74.00     0.00     -11.43 -999.99  -11.43    0.00000     0.00  LINEAR    8.24377E-01    57.68    0.00000E+00     0.00
  -72.00     0.00     -10.08 -999.99  -10.08    0.00000     0.00  LINEAR    9.63656E-01    63.48    0.00000E+00     0.00
  -70.00     0.00      -9.17 -999.99   -9.17    0.00000     0.00  LINEAR    1.06966E+00    70.08    0.00000E+00     0.00
  -68.00     0.00      -8.75 -999.99   -8.75    0.00000     0.00  LINEAR    1.12212E+00    77.60    0.00000E+00     0.00
  -66.00     0.00      -8.93 -999.99   -8.93    0.00000     0.00  LINEAR    1.09961E+00    86.30    0.00000E+00     0.00
  -64.00     0.00      -9.91 -999.99   -9.91    0.00000     0.00  LINEAR    9.82155E-01    96.85    0.00000E+00     0.00
  -62.00     0.00     -12.18 -999.99  -12.18    0.00000     0.00  LINEAR    7.56703E-01   111.32    0.00000E+00     0.00
  -60.00     0.00     -16.85 -999.99  -16.85    0.00000     0.00  LINEAR    4.41582E-01   140.03    0.00000E+00     0.00
  -58.00     0.00     -18.87 -999.99  -18.87    0.00000     0.00  LINEAR    3.50227E-01  -132.27    0.00000E+00     0.00
  -56.00     0.00     -11.06 -999.99  -11.06    0.00000     0.00  LINEAR    8.60056E-01   -83.64    0.00000E+00     0.00
  -54.00     0.00      -5.92 -999.99   -5.92    0.00000     0.00  LINEAR    1.55554E+00   -63.92    0.00000E+00     0.00
  -52.00     0.00      -2.46 -999.99   -2.46    0.00000     0.00  LINEAR    2.31460E+00   -49.42    0.00000E+00     0.00
  -50.00     0.00      -0.03 -999.99   -0.03    0.00000     0.00  LINEAR    3.06202E+00   -36.39    0.00000E+00     0.00
  -48.00     0.00       1.64 -999.99    1.64    0.00000     0.00  LINEAR    3.71372E+00   -23.82    0.00000E+00     0.00
  -46.00     0.00       2.66 -999.99    2.66    0.00000     0.00  LINEAR    4.17635E+00   -11.39    0.00000E+00     0.00
  -44.00     0.00       3.03 -999.99    3.03    0.00000     0.00  LINEAR    4.35477E+00     0.98    0.00000E+00     0.00
  -42.00     0.00       2.64 -999.99    2.64    0.00000     0.00  LINEAR    4.16352E+00    13.15    0.00000E+00     0.00
  -40.00     0.00       1.23 -999.99    1.23    0.00000     0.00  LINEAR    3.54143E+00    24.66    0.00000E+00     0.00
  -38.00     0.00      -1.89 -999.99   -1.89    0.00000     0.00  LINEAR    2.47144E+00    33.67    0.00000E+00     0.00
  -36.00     0.00      -9.27 -999.99   -9.27    0.00000     0.00  LINEAR    1.05737E+00    26.18    0.00000E+00     0.00
  -34.00     0.00      -8.12 -999.99   -8.12    0.00000     0.00  LINEAR    1.20681E+00   -73.03    0.00000E+00     0.00
  -32.00     0.00       0.36 -999.99    0.36    0.00000     0.00  LINEAR    3.20318E+00   -78.28    0.00000E+00     0.00
  -30.00     0.00       4.72 -999.99    4.72    0.00000     0.00  LINEAR    5.29288E+00   -68.01    0.00000E+00     0.00
  -28.00     0.00       7.33 -999.99    7.33    0.00000     0.00  LINEAR    7.15101E+00   -54.90    0.00000E+00     0.00
  -26.00     0.00       8.82 -999.99    8.82    0.00000     0.00  LINEAR    8.48901E+00   -40.76    0.00000E+00     0.00
  -24.00     0.00       9.36 -999.99    9.36    0.00000     0.00  LINEAR    9.02837E+00   -26.23    0.00000E+00     0.00
  -22.00     0.00       8.87 -999.99    8.87    0.00000     0.00  LINEAR    8.53046E+00   -11.81    0.00000E+00     0.00
  -20.00     0.00       6.94 -999.99    6.94    0.00000     0.00  LINEAR    6.83520E+00     1.49    0.00000E+00     0.00
  -18.00     0.00       2.13 -999.99    2.13    0.00000     0.00  LINEAR    3.92896E+00     9.00    0.00000E+00     0.00
  -16.00     0.00      -6.68 -999.99   -6.68    0.00000     0.00  LINEAR    1.42452E+00   -67.02    0.00000E+00     0.00
  -14.00     0.00       5.74 -999.99    5.74    0.00000     0.00  LINEAR    5.95543E+00  -105.54    0.00000E+00     0.00
  -12.00     0.00      11.74 -999.99   11.74    0.00000     0.00  LINEAR    1.18759E+01   -95.08    0.00000E+00     0.00
  -10.00     0.00      15.42 -999.99   15.42    0.00000     0.00  LINEAR    1.81465E+01   -80.22    0.00000E+00     0.00
   -8.00     0.00      17.94 -999.99   17.94    0.00000     0.00  LINEAR    2.42444E+01   -64.03    0.00000E+00     0.00
   -6.00     0.00      19.69 -999.99   19.69    0.00000     0.00  LINEAR    2.96570E+01   -47.24    0.00000E+00     0.00
   -4.00     0.00      20.85 -999.99   20.85    0.00000     0.00  LINEAR    3.39133E+01   -30.10    0.00000E+00     0.00
   -2.00     0.00      21.52 -999.99   21.52    0.00000     0.00  LINEAR    3.66327E+01   -12.73    0.00000E+00     0.00
    0.00     0.00      21.74 -999.99   21.74    0.00000     0.00  LINEAR    3.75678E+01     4.81    0.00000E+00     0.00
    2.00     0.00      21.52 -999.99   21.52    0.00000     0.00  LINEAR    3.66327E+01    22.47    0.00000E+00     0.00
    4.00     0.00      20.85 -999.99   20.85    0.00000     0.00  LINEAR    3.39133E+01    40.26    0.00000E+00     0.00
    6.00     0.00      19.69 -999.99   19.69    0.00000     0.00  LINEAR    2.96570E+01    58.20    0.00000E+00     0.00
    8.00     0.00      17.94 -999.99   17.94    0.00000     0.00  LINEAR    2.42444E+01    76.35    0.00000E+00     0.00
   10.00     0.00      15.42 -999.99   15.42    0.00000     0.00  LINEAR    1.81465E+01    94.94    0.00000E+00     0.00
   12.00     0.00      11.74 -999.99   11.74    0.00000     0.00  LINEAR    1.18759E+01   114.63    0.00000E+00     0.00
   14.00     0.00       5.74 -999.99    5.74    0.00000     0.00  LINEAR    5.95543E+00   138.48    0.00000E+00     0.00
   16.00     0.00      -6.68 -999.99   -6.68    0.00000     0.00  LINEAR    1.42452E+00  -148.99    0.00000E+00     0.00
   18.00     0.00       2.13 -999.99    2.13    0.00000     0.00  LINEAR    3.92896E+00   -39.31    0.00000E+00     0.00
   20.00     0.00       6.94 -999.99    6.94    0.00000     0.00  LINEAR    6.83520E+00   -13.52    0.00000E+00     0.00
   22.00     0.00       8.87 -999.99    8.87    0.00000     0.00  LINEAR    8.53046E+00     6.04    0.00000E+00     0.00
   24.00     0.00       9.36 -999.99    9.36    0.00000     0.00  LINEAR    9.02837E+00    24.03    0.00000E+00     0.00
   26.00     0.00       8.82 -999.99    8.82    0.00000     0.00  LINEAR    8.48901E+00    41.41    0.00000E+00     0.00
   28.00     0.00       7.33 -999.99    7.33    0.00000     0.00  LINEAR    7.15101E+00    58.64    0.00000E+00     0.00
   30.00     0.00       4.72 -999.99    4.72    0.00000     0.00  LINEAR    5.29288E+00    76.32    0.00000E+00     0.00
   32.00     0.00       0.36 -999.99    0.36    0.00000     0.00  LINEAR    3.20318E+00    96.24    0.00000E+00     0.00
   34.00     0.00      -8.12 -999.99   -8.12    0.00000     0.00  LINEAR    1.20681E+00   131.01    0.00000E+00     0.00
   36.00     0.00      -9.27 -999.99   -9.27    0.00000     0.00  LINEAR    1.05737E+00  -100.93    0.00000E+00     0.00
   38.00     0.00      -1.89 -999.99   -1.89    0.00000     0.00  LINEAR    2.47144E+00   -65.33    0.00000E+00     0.00
   40.00     0.00       1.23 -999.99    1.23    0.00000     0.00  LINEAR    3.54143E+00   -46.98    0.00000E+00     0.00
   42.00     0.00       2.64 -999.99    2.64    0.00000     0.00  LINEAR    4.16352E+00   -31.91    0.00000E+00     0.00
   44.00     0.00       3.03 -999.99    3.03    0.00000     0.00  LINEAR    4.35477E+00   -18.34    0.00000E+00     0.00
   46.00     0.00       2.66 -999.99    2.66    0.00000     0.00  LINEAR    4.17635E+00    -5.81    0.00000E+00     0.00
   48.00     0.00       1.64 -999.99    1.64    0.00000     0.00  LINEAR    3.71372E+00     5.77    0.00000E+00     0.00
   50.00     0.00      -0.03 -999.99   -0.03    0.00000     0.00  LINEAR    3.06202E+00    16.30    0.00000E+00     0.00
   52.00     0.00      -2.46 -999.99   -2.46    0.00000     0.00  LINEAR    2.31460E+00    25.42    0.00000E+00     0.00
   54.00     0.00      -5.92 -999.99   -5.92    0.00000     0.00  LINEAR    1.55554E+00    32.12    0.00000E+00     0.00
   56.00     0.00     -11.06 -999.99  -11.06    0.00000     0.00  LINEAR    8.60056E-01    32.59    0.00000E+00     0.00
   58.00     0.00     -18.87 -999.99  -18.87    0.00000     0.00  LINEAR    3.50227E-01     3.13    0.00000E+00     0.00
   60.00     0.00     -16.85 -999.99  -16.85    0.00000     0.00  LINEAR    4.41582E-01   -66.43    0.00000E+00     0.00
   62.00     0.00     -12.18 -999.99  -12.18    0.00000     0.00  LINEAR    7.56703E-01   -78.08    0.00000E+00     0.00
   64.00     0.00      -9.91 -999.99   -9.91    0.00000     0.00  LINEAR    9.82155E-01   -76.56    0.00000E+00     0.00
   66.00     0.00      -8.93 -999.99   -8.93    0.00000     0.00  LINEAR    1.09961E+00   -72.23    0.00000E+00     0.00
   68.00     0.00      -8.75 -999.99   -8.75    0.00000     0.00  LINEAR    1.12212E+00   -67.18    0.00000E+00     0.00
   70.00     0.00      -9.17 -999.99   -9.17    0.00000     0.00  LINEAR    1.06966E+00   -62.08    0.00000E+00     0.00
   72.00     0.00     -10.08 -999.99  -10.08    0.00000     0.00  LINEAR    9.63656E-01   -57.21    0.00000E+00     0.00
   74.00     0.00     -11.43 -999.99  -11.43    0.00000     0.00  LINEAR    8.24377E-01   -52.72    0.00000E+00     0.00
   76.00     0.00     -13.24 -999.99  -13.24    0.00000     0.00  LINEAR    6.69552E-01   -48.68    0.00000E+00     0.00
   78.00     0.00     -15.54 -999.99  -15.54    0.00000     0.00  LINEAR    5.13711E-01   -45.14    0.00000E+00     0.00
   80.00     0.00     -18.43 -999.99  -18.43    0.00000     0.00  LINEAR    3.68072E-01   -42.11    0.00000E+00     0.00
   82.00     0.00     -22.12 -999.99  -22.12    0.00000     0.00  LINEAR    2.40800E-01   -39.62    0.00000E+00     0.00
   84.00     0.00     -26.99 -999.99  -26.99    0.00000     0.00  LINEAR    1.37481E-01   -37.68    0.00000E+00     0.00
   86.00     0.00     -33.95 -999.99  -33.95    0.00000     0.00  LINEAR    6.16828E-02   -36.29    0.00000E+00     0.00
   88.00     0.00     -45.95 -999.99  -45.95    0.00000     0.00  LINEAR    1.55011E-02   -35.45    0.00000E+00     0.00
   90.00     0.00    -999.99 -999.99 -999.99    0.00000     0.00            3.31891E-22   -35.18    0.00000E+00     0.00






 ***** DATA CARD NO.  29 RP     0    91     1  1000 -9.00000E+01  4.50000E+01  2.00000E+00  1.00000E+00  0.00000E+00  0.00000E+00



                                                - - - RADIATION PATTERNS - - -

  - - ANGLES - -           - POWER GAINS -       - - - POLARIZATION - - -    - - - E(THETA) - - -    - - - E(PHI) - - -
  THETA     PHI        VERT.   HOR.    TOTAL      AXIAL     TILT   SENSE     MAGNITUDE    PHASE      MAGNITUDE    PHASE 
 DEGREES  DEGREES       DB      DB      DB        RATIO     DEG.              VOLTS/M    DEGREES      VOLTS/M    DEGREES
  -90.00    45.00    -999.99 -999.99 -999.99    0.00000     0.00            3.04876E-23   -18.26    5.97397E-12   -18.26
  -88.00    45.00     -66.68  -37.54  -37.53    0.00000   -88.00  LINEAR    1.42439E-03   -17.84    4.08141E-02   162.16
  -86.00    45.00     -54.68  -31.55  -31.53    0.00000   -86.01  LINEAR    5.67054E-03   -16.55    8.12905E-02   163.45
  -84.00    45.00     -47.71  -28.10  -28.05    0.00000   -84.03  LINEAR    1.26468E-02   -14.43    1.20989E-01   165.57
  -82.00    45.00     -42.84  -25.71  -25.63    0.00000   -82.08  LINEAR    2.21660E-02   -11.47    1.59269E-01   168.53
  -80.00    45.00     -39.15  -23.94  -23.81    0.00000   -80.15  LINEAR    3.38980E-02    -7.71    1.95211E-01   172.29
  -78.00    45.00     -36.25  -22.61  -22.43    0.00000   -78.25  LINEAR    4.73123E-02    -3.17    2.27560E-01   176.83
  -76.00    45.00     -33.96  -21.63  -21.39    0.00000   -76.40  LINEAR    6.16216E-02     2.10    2.54717E-01  -177.90
  -74.00    45.00     -32.17  -20.97  -20.66    0.00000   -74.59  LINEAR    7.57444E-02     8.04    2.74797E-01  -171.96
  -72.00    45.00     -30.83  -20.63  -20.24    0.00000   -72.83  LINEAR    8.83095E-02    14.59    2.85775E-01  -165.41
  -70.00    45.00     -29.95  -20.63  -20.15    0.00000   -71.12  LINEAR    9.77312E-02    21.62    2.85747E-01  -158.38
[...]
  -42.00    45.00     -12.41   -9.83   -7.92    0.00000   -53.38  LINEAR    7.36330E-01  -128.23    9.90829E-01    51.77
  -40.00    45.00     -10.28   -7.97   -5.96    0.00000   -52.55  LINEAR    9.40944E-01  -110.44    1.22831E+00    69.56
  -38.00    45.00      -8.87   -6.81   -4.71    0.00000   -51.76  LINEAR    1.10651E+00   -92.38    1.40419E+00    87.62
  -36.00    45.00      -8.20   -6.36   -4.18    0.00000   -51.03  LINEAR    1.19538E+00   -74.15    1.47757E+00   105.85
  -34.00    45.00      -8.35   -6.72   -4.45    0.00000   -50.34  LINEAR    1.17568E+00   -55.99    1.41813E+00   124.01
  -32.00    45.00      -9.48   -8.05   -5.69    0.00000   -49.70  LINEAR    1.03234E+00   -38.33    1.21731E+00   141.67
  -30.00    45.00     -11.93  -10.68   -8.25    0.00000   -49.11  LINEAR    7.78331E-01   -22.11    8.98740E-01   157.89
  -28.00    45.00     -16.44  -15.36  -12.85    0.00000   -48.56  LINEAR    4.63252E-01    -9.62    5.24665E-01   170.38
  -26.00    45.00     -25.05  -24.13  -21.55    0.00000   -48.05  LINEAR    1.71814E-01    -8.48    1.91161E-01   171.52
  -24.00    45.00     -38.82  -38.03  -35.39    0.00000   -47.59  LINEAR    3.52297E-02  -174.17    3.85637E-02     5.83
  -22.00    45.00     -19.53  -18.88  -16.18    0.00000   -47.16  LINEAR    3.24375E-01   143.78    3.49850E-01   -36.22
  -20.00    45.00      -9.33   -8.79   -6.05    0.00000   -46.78  LINEAR    1.04941E+00   145.02    1.11676E+00   -34.98
  -18.00    45.00      -2.17   -1.73    1.06    0.00000   -46.44  LINEAR    2.39448E+00   158.75    2.51771E+00   -21.25
  -16.00    45.00       3.20    3.54    6.38    0.00000   -46.13  LINEAR    4.44250E+00   177.31    4.62153E+00    -2.69
  -14.00    45.00       7.37    7.64   10.52    0.00000   -45.86  LINEAR    7.18461E+00  -161.82    7.40456E+00    18.18
  -12.00    45.00      10.68   10.87   13.78    0.00000   -45.63  LINEAR    1.05071E+01  -139.64    1.07418E+01    40.36
  -10.00    45.00      13.29   13.42   16.36    0.00000   -45.44  LINEAR    1.41906E+01  -116.61    1.44095E+01    63.39
   -8.00    45.00      15.32   15.40   18.37    0.00000   -45.28  LINEAR    1.79288E+01   -93.01    1.81050E+01    86.99
   -6.00    45.00      16.84   16.89   19.87    0.00000   -45.16  LINEAR    2.13641E+01   -68.97    2.14817E+01   111.03
   -4.00    45.00      17.90   17.92   20.92    0.00000   -45.07  LINEAR    2.41367E+01   -44.61    2.41957E+01   135.39
   -2.00    45.00      18.53   18.53   21.54    0.00000   -45.02  LINEAR    2.59392E+01   -20.00    2.59550E+01   160.00
    0.00    45.00      18.73   18.73   21.74    0.00000   -45.00  LINEAR    2.65644E+01     4.81    2.65644E+01  -175.19
    2.00    45.00      18.53   18.53   21.54    0.00000   -45.02  LINEAR    2.59392E+01    29.78    2.59550E+01  -150.22
    4.00    45.00      17.90   17.92   20.92    0.00000   -45.07  LINEAR    2.41367E+01    54.89    2.41957E+01  -125.11
    6.00    45.00      16.84   16.89   19.87    0.00000   -45.16  LINEAR    2.13641E+01    80.14    2.14817E+01   -99.86
    8.00    45.00      15.32   15.40   18.37    0.00000   -45.28  LINEAR    1.79288E+01   105.52    1.81050E+01   -74.48
   10.00    45.00      13.29   13.42   16.36    0.00000   -45.44  LINEAR    1.41906E+01   131.09    1.44095E+01   -48.91
   12.00    45.00      10.68   10.87   13.78    0.00000   -45.63  LINEAR    1.05071E+01   156.94    1.07418E+01   -23.06
   14.00    45.00       7.37    7.64   10.52    0.00000   -45.86  LINEAR    7.18461E+00  -176.73    7.40456E+00     3.27
   16.00    45.00       3.20    3.54    6.38    0.00000   -46.13  LINEAR    4.44250E+00  -149.50    4.62153E+00    30.50
   18.00    45.00      -2.17   -1.73    1.06    0.00000   -46.44  LINEAR    2.39448E+00  -120.45    2.51771E+00    59.55
   20.00    45.00      -9.33   -8.79   -6.05    0.00000   -46.78  LINEAR    1.04941E+00   -87.10    1.11676E+00    92.90
   22.00    45.00     -19.53  -18.88  -16.18    0.00000   -47.16  LINEAR    3.24375E-01   -41.86    3.49850E-01   138.14
   24.00    45.00     -38.82  -38.03  -35.39    0.00000   -47.59  LINEAR    3.52297E-02    46.03    3.85637E-02  -133.97
   26.00    45.00     -25.05  -24.13  -21.55    0.00000   -48.05  LINEAR    1.71814E-01  -103.16    1.91161E-01    76.84
   28.00    45.00     -16.44  -15.36  -12.85    0.00000   -48.56  LINEAR    4.63252E-01   -59.93    5.24665E-01   120.07
   30.00    45.00     -11.93  -10.68   -8.25    0.00000   -49.11  LINEAR    7.78331E-01   -28.87    8.98740E-01   151.13
   32.00    45.00      -9.48   -8.05   -5.69    0.00000   -49.70  LINEAR    1.03234E+00    -2.41    1.21731E+00   177.59
   34.00    45.00      -8.35   -6.72   -4.45    0.00000   -50.34  LINEAR    1.17568E+00    21.69    1.41813E+00  -158.31
   36.00    45.00      -8.20   -6.36   -4.18    0.00000   -51.03  LINEAR    1.19538E+00    44.31    1.47757E+00  -135.69
   38.00    45.00      -8.87   -6.81   -4.71    0.00000   -51.76  LINEAR    1.10651E+00    65.85    1.40419E+00  -114.15
   40.00    45.00     -10.28   -7.97   -5.96    0.00000   -52.55  LINEAR    9.40944E-01    86.48    1.22831E+00   -93.52
   42.00    45.00     -12.41   -9.83   -7.92    0.00000   -53.38  LINEAR    7.36330E-01   106.27    9.90829E-01   -73.73
   44.00    45.00     -15.31  -12.45  -10.64    0.00000   -54.27  LINEAR    5.27541E-01   125.18    7.33368E-01   -54.82
   46.00    45.00     -19.09  -15.93  -14.22    0.00000   -55.21  LINEAR    3.41241E-01   142.98    4.91236E-01   -37.02
   48.00    45.00     -24.01  -20.52  -18.91    0.00000   -56.21  LINEAR    1.93716E-01   158.87    2.89504E-01   -21.13
   50.00    45.00     -30.52  -26.68  -25.18    0.00000   -57.27  LINEAR    9.15803E-02   169.64    1.42474E-01   -10.36
   52.00    45.00     -38.57  -34.36  -32.96    0.00000   -58.38  LINEAR    3.62343E-02   160.85    5.88543E-02   -19.15
   54.00    45.00     -41.03  -36.41  -35.12    0.00000   -59.55  LINEAR    2.73075E-02   130.54    4.64584E-02   -49.46
   56.00    45.00     -39.16  -34.12  -32.93    0.00000   -60.79  LINEAR    3.38446E-02   143.42    6.05239E-02   -36.58
   58.00    45.00     -36.84  -31.32  -30.25    0.00000   -62.08  LINEAR    4.42303E-02   176.08    8.34662E-02    -3.92
   60.00    45.00     -34.11  -28.09  -27.12    0.00000   -63.43  LINEAR    6.05559E-02  -154.35    1.21112E-01    25.65
   62.00    45.00     -31.87  -25.31  -24.44    0.00000   -64.85  LINEAR    7.83489E-02  -132.08    1.66887E-01    47.92
   64.00    45.00     -30.41  -23.25  -22.49    0.00000   -66.33  LINEAR    9.26838E-02  -114.77    2.11428E-01    65.23
   66.00    45.00     -29.67  -21.86  -21.20    0.00000   -67.87  LINEAR    1.00917E-01  -100.55    2.48115E-01    79.45
   68.00    45.00     -29.55  -21.02  -20.45    0.00000   -69.46  LINEAR    1.02386E-01   -88.44    2.73316E-01    91.56
   70.00    45.00     -29.95  -20.63  -20.15    0.00000   -71.12  LINEAR    9.77312E-02   -77.93    2.85747E-01   102.07
   72.00    45.00     -30.83  -20.63  -20.24    0.00000   -72.83  LINEAR    8.83095E-02   -68.75    2.85775E-01   111.25
   74.00    45.00     -32.17  -20.97  -20.66    0.00000   -74.59  LINEAR    7.57444E-02   -60.74    2.74797E-01   119.26
   76.00    45.00     -33.96  -21.63  -21.39    0.00000   -76.40  LINEAR    6.16216E-02   -53.80    2.54717E-01   126.20
   78.00    45.00     -36.25  -22.61  -22.43    0.00000   -78.25  LINEAR    4.73123E-02   -47.87    2.27560E-01   132.13
   80.00    45.00     -39.15  -23.94  -23.81    0.00000   -80.15  LINEAR    3.38980E-02   -42.90    1.95211E-01   137.10
   82.00    45.00     -42.84  -25.71  -25.63    0.00000   -82.08  LINEAR    2.21660E-02   -38.87    1.59269E-01   141.13
   84.00    45.00     -47.71  -28.10  -28.05    0.00000   -84.03  LINEAR    1.26468E-02   -35.76    1.20989E-01   144.24
   86.00    45.00     -54.68  -31.55  -31.53    0.00000   -86.01  LINEAR    5.67054E-03   -33.55    8.12905E-02   146.45
   88.00    45.00     -66.68  -37.54  -37.53    0.00000   -88.00  LINEAR    1.42439E-03   -32.23    4.08141E-02   147.77
   90.00    45.00    -999.99 -999.99 -999.99    0.00000     0.00            3.04919E-23   -31.80    5.97480E-12   -31.80






 ***** DATA CARD NO.  30 RP     0    91     1  1000 -9.00000E+01  9.00000E+01  2.00000E+00  1.00000E+00  0.00000E+00  0.00000E+00



                                                - - - RADIATION PATTERNS - - -

  - - ANGLES - -           - POWER GAINS -       - - - POLARIZATION - - -    - - - E(THETA) - - -    - - - E(PHI) - - -
  THETA     PHI        VERT.   HOR.    TOTAL      AXIAL     TILT   SENSE     MAGNITUDE    PHASE      MAGNITUDE    PHASE 
 DEGREES  DEGREES       DB      DB      DB        RATIO     DEG.              VOLTS/M    DEGREES      VOLTS/M    DEGREES
  -90.00    90.00    -999.99 -999.99 -999.99    0.00000     0.00            1.66895E-33  -155.17    6.40799E-11    24.83
  -88.00    90.00    -999.99  -16.93  -16.93    0.00000    90.00  LINEAR    7.79860E-14  -154.82    4.37862E-01  -154.82
  -86.00    90.00    -999.99  -10.93  -10.93    0.00000    90.00  LINEAR    3.10759E-13  -153.80    8.72927E-01  -153.80
  -84.00    90.00    -999.99   -7.47   -7.47    0.00000    90.00  LINEAR    6.94201E-13  -152.10    1.30134E+00  -152.10
  -82.00    90.00    -999.99   -5.06   -5.06    0.00000    90.00  LINEAR    1.21965E-12  -149.74    1.71719E+00  -149.74
  -80.00    90.00    -999.99   -3.26   -3.26    0.00000    90.00  LINEAR    1.87140E-12  -146.74    2.11172E+00  -146.74
  -78.00    90.00    -999.99   -1.89   -1.89    0.00000    90.00  LINEAR    2.62372E-12  -143.11    2.47273E+00  -143.11
  -76.00    90.00    -999.99   -0.86   -0.86    0.00000    90.00  LINEAR    3.43772E-12  -138.89    2.78442E+00  -138.89
  -74.00    90.00    -999.99   -0.13   -0.13    0.00000    90.00  LINEAR    4.25882E-12  -134.08    3.02755E+00  -134.08
  -72.00    90.00    -999.99    0.30    0.30    0.00000    90.00  LINEAR    5.01541E-12  -128.72    3.18027E+00  -128.72
  -70.00    90.00    -999.99    0.40    0.40    0.00000    90.00  LINEAR    5.61943E-12  -122.84    3.21944E+00  -122.84
  -68.00    90.00    -999.99    0.14    0.14    0.00000    90.00  LINEAR    5.96969E-12  -116.48    3.12259E+00  -116.48
  -66.00    90.00    -999.99   -0.59   -0.59    0.00000    90.00  LINEAR    5.95840E-12  -109.73    2.87049E+00  -109.73
  -64.00    90.00    -999.99   -1.97   -1.97    0.00000    90.00  LINEAR    5.48139E-12  -102.72    2.45012E+00  -102.72
  -62.00    90.00    -999.99   -4.37   -4.37    0.00000    90.00  LINEAR    4.45218E-12   -95.86    1.85825E+00   -95.86
  -60.00    90.00    -999.99   -8.88   -8.88    0.00000    90.00  LINEAR    2.82231E-12   -90.82    1.10605E+00   -90.82
  -58.00    90.00    -999.99  -21.44  -21.44    0.00000    90.00  LINEAR    7.04168E-13  -114.23    2.60379E-01  -114.23
  -56.00    90.00    -999.99  -11.47  -11.47    0.00000    90.00  LINEAR    2.34162E-12   129.25    8.20531E-01   129.25
  -54.00    90.00    -999.99   -4.42   -4.42    0.00000    90.00  LINEAR    5.54265E-12   132.66    1.84773E+00   132.66
  -52.00    90.00    -999.99   -0.66   -0.66    0.00000    90.00  LINEAR    8.95043E-12   141.46    2.84866E+00   141.46
  -50.00    90.00    -999.99    1.68    1.68    0.00000    90.00  LINEAR    1.22383E-11   151.80    3.73072E+00   151.80
  -48.00    90.00    -999.99    3.12    3.12    0.00000    90.00  LINEAR    1.50247E-11   163.00    4.39982E+00   163.00
  -46.00    90.00    -999.99    3.81    3.81    0.00000    90.00  LINEAR    1.68910E-11   174.88    4.76458E+00   174.88
  -44.00    90.00    -999.99    3.77    3.77    0.00000    90.00  LINEAR    1.74231E-11  -172.62    4.74603E+00  -172.62
  -42.00    90.00    -999.99    2.89    2.89    0.00000    90.00  LINEAR    1.62657E-11  -159.47    4.28883E+00  -159.47
  -40.00    90.00    -999.99    0.81    0.81    0.00000    90.00  LINEAR    1.31849E-11  -145.45    3.37258E+00  -145.45
  -38.00    90.00    -999.99   -3.63   -3.63    0.00000    90.00  LINEAR    8.13590E-12  -129.36    2.02308E+00  -129.36
  -36.00    90.00    -999.99  -18.43  -18.43    0.00000    90.00  LINEAR    1.52124E-12   -84.79    3.68450E-01   -84.79
  -34.00    90.00    -999.99   -5.29   -5.29    0.00000    90.00  LINEAR    7.07401E-12    64.74    1.67198E+00    64.74
  -32.00    90.00    -999.99    1.55    1.55    0.00000    90.00  LINEAR    1.58990E-11    83.27    3.67357E+00    83.27
  -30.00    90.00    -999.99    5.09    5.09    0.00000    90.00  LINEAR    2.44117E-11    98.96    5.52339E+00    98.96
  -28.00    90.00    -999.99    7.12    7.12    0.00000    90.00  LINEAR    3.14468E-11   114.02    6.97881E+00   114.02
  -26.00    90.00    -999.99    8.09    8.09    0.00000    90.00  LINEAR    3.57845E-11   128.65    7.80142E+00   128.65
  -24.00    90.00    -999.99    8.07    8.07    0.00000    90.00  LINEAR    3.62823E-11   142.53    7.78223E+00   142.53
  -22.00    90.00    -999.99    6.87    6.87    0.00000    90.00  LINEAR    3.20738E-11   154.56    6.77835E+00   154.56
  -20.00    90.00    -999.99    3.86    3.86    0.00000    90.00  LINEAR    2.29847E-11   160.56    4.79284E+00   160.56
  -18.00    90.00    -999.99   -1.57   -1.57    0.00000    90.00  LINEAR    1.24478E-11   135.27    2.56463E+00   135.27
  -16.00    90.00    -999.99    2.92    2.92    0.00000    90.00  LINEAR    2.11149E-11    77.88    4.30414E+00    77.88
  -14.00    90.00    -999.99    9.37    9.37    0.00000    90.00  LINEAR    4.47808E-11    75.65    9.04331E+00    75.65
  -12.00    90.00    -999.99   13.52   13.52    0.00000    90.00  LINEAR    7.27970E-11    86.50    1.45831E+01    86.50
  -10.00    90.00    -999.99   16.41   16.41    0.00000    90.00  LINEAR    1.02165E-10   100.83    2.03278E+01   100.83
   -8.00    90.00    -999.99   18.49   18.49    0.00000    90.00  LINEAR    1.30486E-10   116.58    2.58197E+01   116.58
   -6.00    90.00    -999.99   19.97   19.97    0.00000    90.00  LINEAR    1.55459E-10   133.08    3.06296E+01   133.08
   -4.00    90.00    -999.99   20.97   20.97    0.00000    90.00  LINEAR    1.75003E-10   150.04    3.43750E+01   150.04
   -2.00    90.00    -999.99   21.55   21.55    0.00000    90.00  LINEAR    1.87450E-10   167.30    3.67528E+01   167.30
    0.00    90.00    -999.99   21.74   21.74    0.00000    90.00  LINEAR    1.91724E-10  -175.19    3.75678E+01  -175.19
    2.00    90.00    -999.99   21.55   21.55    0.00000    90.00  LINEAR    1.87450E-10  -157.49    3.67528E+01  -157.49
    4.00    90.00    -999.99   20.97   20.97    0.00000    90.00  LINEAR    1.75003E-10  -139.60    3.43750E+01  -139.60
    6.00    90.00    -999.99   19.97   19.97    0.00000    90.00  LINEAR    1.55459E-10  -121.49    3.06296E+01  -121.49
    8.00    90.00    -999.99   18.49   18.49    0.00000    90.00  LINEAR    1.30486E-10  -103.04    2.58197E+01  -103.04
   10.00    90.00    -999.99   16.41   16.41    0.00000    90.00  LINEAR    1.02165E-10   -84.02    2.03278E+01   -84.02
   12.00    90.00    -999.99   13.52   13.52    0.00000    90.00  LINEAR    7.27970E-11   -63.78    1.45831E+01   -63.78
   14.00    90.00    -999.99    9.37    9.37    0.00000    90.00  LINEAR    4.47808E-11   -40.33    9.04331E+00   -40.33
   16.00    90.00    -999.99    2.92    2.92    0.00000    90.00  LINEAR    2.11149E-11    -4.09    4.30414E+00    -4.09
   18.00    90.00    -999.99   -1.57   -1.57    0.00000    90.00  LINEAR    1.24478E-11    86.97    2.56463E+00    86.97
   20.00    90.00    -999.99    3.86    3.86    0.00000    90.00  LINEAR    2.29847E-11   145.55    4.79284E+00   145.55
   22.00    90.00    -999.99    6.87    6.87    0.00000    90.00  LINEAR    3.20738E-11   172.42    6.77835E+00   172.42
   24.00    90.00    -999.99    8.07    8.07    0.00000    90.00  LINEAR    3.62823E-11  -167.21    7.78223E+00  -167.21
   26.00    90.00    -999.99    8.09    8.09    0.00000    90.00  LINEAR    3.57845E-11  -149.18    7.80142E+00  -149.18
   28.00    90.00    -999.99    7.12    7.12    0.00000    90.00  LINEAR    3.14468E-11  -132.44    6.97881E+00  -132.44
   30.00    90.00    -999.99    5.09    5.09    0.00000    90.00  LINEAR    2.44117E-11  -116.70    5.52339E+00  -116.70
   32.00    90.00    -999.99    1.55    1.55    0.00000    90.00  LINEAR    1.58990E-11  -102.21    3.67357E+00  -102.21
   34.00    90.00    -999.99   -5.29   -5.29    0.00000    90.00  LINEAR    7.07401E-12   -91.22    1.67198E+00   -91.22
   36.00    90.00    -999.99  -18.43  -18.43    0.00000    90.00  LINEAR    1.52124E-12   148.09    3.68450E-01   148.09
   38.00    90.00    -999.99   -3.63   -3.63    0.00000    90.00  LINEAR    8.13590E-12   131.64    2.02308E+00   131.64
   40.00    90.00    -999.99    0.81    0.81    0.00000    90.00  LINEAR    1.31849E-11   142.92    3.37258E+00   142.92
   42.00    90.00    -999.99    2.89    2.89    0.00000    90.00  LINEAR    1.62657E-11   155.46    4.28883E+00   155.46
   44.00    90.00    -999.99    3.77    3.77    0.00000    90.00  LINEAR    1.74231E-11   168.06    4.74603E+00   168.06
   46.00    90.00    -999.99    3.81    3.81    0.00000    90.00  LINEAR    1.68910E-11  -179.54    4.76458E+00  -179.54
   48.00    90.00    -999.99    3.12    3.12    0.00000    90.00  LINEAR    1.50247E-11  -167.41    4.39982E+00  -167.41
   50.00    90.00    -999.99    1.68    1.68    0.00000    90.00  LINEAR    1.22383E-11  -155.52    3.73072E+00  -155.52
   52.00    90.00    -999.99   -0.66   -0.66    0.00000    90.00  LINEAR    8.95043E-12  -143.69    2.84866E+00  -143.69
   54.00    90.00    -999.99   -4.42   -4.42    0.00000    90.00  LINEAR    5.54265E-12  -131.30    1.84773E+00  -131.30
   56.00    90.00    -999.99  -11.47  -11.47    0.00000    90.00  LINEAR    2.34162E-12  -114.52    8.20531E-01  -114.52
   58.00    90.00    -999.99  -21.44  -21.44    0.00000    90.00  LINEAR    7.04168E-13    21.18    2.60379E-01    21.18
   60.00    90.00    -999.99   -8.88   -8.88    0.00000    90.00  LINEAR    2.82231E-12    62.71    1.10605E+00    62.71
   62.00    90.00    -999.99   -4.37   -4.37    0.00000    90.00  LINEAR    4.45218E-12    74.75    1.85825E+00    74.75
   64.00    90.00    -999.99   -1.97   -1.97    0.00000    90.00  LINEAR    5.48139E-12    83.87    2.45012E+00    83.87
   66.00    90.00    -999.99   -0.59   -0.59    0.00000    90.00  LINEAR    5.95840E-12    91.74    2.87049E+00    91.74
   68.00    90.00    -999.99    0.14    0.14    0.00000    90.00  LINEAR    5.96969E-12    98.74    3.12259E+00    98.74
   70.00    90.00    -999.99    0.40    0.40    0.00000    90.00  LINEAR    5.61943E-12   105.00    3.21944E+00   105.00
   72.00    90.00    -999.99    0.30    0.30    0.00000    90.00  LINEAR    5.01541E-12   110.59    3.18027E+00   110.59
   74.00    90.00    -999.99   -0.13   -0.13    0.00000    90.00  LINEAR    4.25882E-12   115.52    3.02755E+00   115.52
   76.00    90.00    -999.99   -0.86   -0.86    0.00000    90.00  LINEAR    3.43772E-12   119.82    2.78442E+00   119.82
   78.00    90.00    -999.99   -1.89   -1.89    0.00000    90.00  LINEAR    2.62372E-12   123.52    2.47273E+00   123.52
   80.00    90.00    -999.99   -3.26   -3.26    0.00000    90.00  LINEAR    1.87140E-12   126.61    2.11172E+00   126.61
   82.00    90.00    -999.99   -5.06   -5.06    0.00000    90.00  LINEAR    1.21965E-12   129.11    1.71719E+00   129.11
   84.00    90.00    -999.99   -7.47   -7.47    0.00000    90.00  LINEAR    6.94201E-13   131.05    1.30134E+00   131.05
   86.00    90.00    -999.99  -10.93  -10.93    0.00000    90.00  LINEAR    3.10759E-13   132.42    8.72927E-01   132.42
   88.00    90.00    -999.99  -16.93  -16.93    0.00000    90.00  LINEAR    7.79860E-14   133.23    4.37862E-01   133.23
   90.00    90.00    -999.99 -999.99 -999.99    0.00000     0.00            1.66902E-33   133.51    6.40827E-11   -46.49






 ***** DATA CARD NO.  31 XQ     0     0     0     0  0.00000E+00  0.00000E+00  0.00000E+00  0.00000E+00  0.00000E+00  0.00000E+00
 ***** DATA CARD NO.  32 EN     0     0     0     0  0.00000E+00  0.00000E+00  0.00000E+00  0.00000E+00  0.00000E+00  0.00000E+00

 RUN TIME =    27.190
