1



                                 *********************************************

                                    NUMERICAL ELECTROMAGNETICS CODE (NEC-2D)

                                 *********************************************




                                     - - - - COMMENTS - - - -


                          NEC-WIN Example                                                            
                          Simple dipole antenna in Free Space                                        
                          Optimized for resonance at 300 MHz                                         
                                                                                                     




                                 - - - STRUCTURE SPECIFICATION - - -

                                     COORDINATES MUST BE INPUT IN
                                     METERS OR BE SCALED TO METERS
                                     BEFORE STRUCTURE INPUT IS ENDED


  WIRE                                                                               NO. OF    FIRST  LAST     TAG
  NO.        X1         Y1         Z1          X2         Y2         Z2      RADIUS   SEG.     SEG.   SEG.     NO.
     1   -0.24160    0.00000    0.00000     0.24180    0.00000    0.00000    0.00010      9        1     9       1

   TOTAL SEGMENTS USED=    9     NO. SEG. IN A SYMMETRIC CELL=    9     SYMMETRY FLAG=  0


         - MULTIPLE WIRE JUNCTIONS -
 JUNCTION    SEGMENTS  (- FOR END 1, + FOR END 2)
  NONE




                                 - - - - SEGMENTATION DATA - - - -

                                        COORDINATES IN METERS

                         I+ AND I- INDICATE THE SEGMENTS BEFORE AND AFTER I


  SEG.   COORDINATES OF SEG. CENTER     SEG.     ORIENTATION ANGLES    WIRE    CONNECTION DATA   TAG
  NO.       X         Y         Z       LENGTH     ALPHA     BETA      RADIUS    I-   I    I+    NO.
     1  -0.21474   0.00000   0.00000   0.05371    0.00000   0.00000   0.00010     0    1    2      1
     2  -0.16103   0.00000   0.00000   0.05371    0.00000   0.00000   0.00010     1    2    3      1
     3  -0.10732   0.00000   0.00000   0.05371    0.00000   0.00000   0.00010     2    3    4      1
     4  -0.05361   0.00000   0.00000   0.05371    0.00000   0.00000   0.00010     3    4    5      1
     5   0.00010   0.00000   0.00000   0.05371    0.00000   0.00000   0.00010     4    5    6      1
     6   0.05381   0.00000   0.00000   0.05371    0.00000   0.00000   0.00010     5    6    7      1
     7   0.10752   0.00000   0.00000   0.05371    0.00000   0.00000   0.00010     6    7    8      1
     8   0.16123   0.00000   0.00000   0.05371    0.00000   0.00000   0.00010     7    8    9      1
     9   0.21494   0.00000   0.00000   0.05371    0.00000   0.00000   0.00010     8    9    0      1






 ***** DATA CARD NO.  1   GN  -1     0     0     0  0.00000E+00  0.00000E+00  0.00000E+00  0.00000E+00  0.00000E+00  0.00000E+00
 ***** DATA CARD NO.  2   EX   0     1     5     0  1.00000E+00  0.00000E+00  0.00000E+00  0.00000E+00  0.00000E+00  0.00000E+00
 ***** DATA CARD NO.  3   FR   0     0     0     0  3.00000E+02  0.00000E+00  0.00000E+00  0.00000E+00  0.00000E+00  0.00000E+00
 ***** DATA CARD NO.  4   RP   0    36    36  1000 -1.80000E+02  0.00000E+00  1.00000E+01  1.00000E+01  0.00000E+00  0.00000E+00




                                 - - - - - - FREQUENCY - - - - - -

                                    FREQUENCY= 3.0000E+02 MHZ
                                    WAVELENGTH= 9.9933E-01 METERS




                    APPROXIMATE INTEGRATION EMPLOYED FOR SEGMENTS MORE THAN   1.000 WAVELENGTHS APART



                               - - - STRUCTURE IMPEDANCE LOADING - - -

                                   THIS STRUCTURE IS NOT LOADED



                                  - - - ANTENNA ENVIRONMENT - - -

                                            FREE SPACE



                                - - - MATRIX TIMING - - -

                        FILL=    0.060 SEC.,  FACTOR=    0.000 SEC.



                                          - - - ANTENNA INPUT PARAMETERS - - -

   TAG   SEG.    VOLTAGE (VOLTS)         CURRENT (AMPS)         IMPEDANCE (OHMS)        ADMITTANCE (MHOS)      POWER
   NO.   NO.    REAL        IMAG.       REAL        IMAG.       REAL        IMAG.       REAL        IMAG.     (WATTS)
     1     5 1.00000E+00 0.00000E+00 1.38890E-02 1.06993E-04 7.19953E+01-5.54610E-01 1.38890E-02 1.06993E-04 6.94449E-03



                             - - - CURRENTS AND LOCATION - - -

                                 DISTANCES IN WAVELENGTHS


  SEG.  TAG    COORD. OF SEG. CENTER     SEG.            - - - CURRENT (AMPS) - - -
  NO.   NO.     X        Y        Z      LENGTH     REAL        IMAG.       MAG.        PHASE
     1    1  -0.2149   0.0000   0.0000  0.05375   2.7135E-03 -1.6538E-04  2.7185E-03   -3.488
     2    1  -0.1611   0.0000   0.0000  0.05375   7.2960E-03 -3.5036E-04  7.3044E-03   -2.749
     3    1  -0.1074   0.0000   0.0000  0.05375   1.0839E-02 -3.5313E-04  1.0844E-02   -1.866
     4    1  -0.0536   0.0000   0.0000  0.05375   1.3107E-02 -1.6539E-04  1.3108E-02   -0.723
     5    1   0.0001   0.0000   0.0000  0.05375   1.3889E-02  1.0699E-04  1.3889E-02    0.441
     6    1   0.0538   0.0000   0.0000  0.05375   1.3107E-02 -1.6539E-04  1.3108E-02   -0.723
     7    1   0.1076   0.0000   0.0000  0.05375   1.0839E-02 -3.5313E-04  1.0844E-02   -1.866
     8    1   0.1613   0.0000   0.0000  0.05375   7.2960E-03 -3.5036E-04  7.3044E-03   -2.749
     9    1   0.2151   0.0000   0.0000  0.05375   2.7135E-03 -1.6538E-04  2.7185E-03   -3.488



                                        - - - POWER BUDGET - - -

                                           INPUT POWER   = 6.9445E-03 WATTS
                                           RADIATED POWER= 6.9445E-03 WATTS
                                           STRUCTURE LOSS= 0.0000E+00 WATTS
                                           NETWORK LOSS  = 0.0000E+00 WATTS
                                           EFFICIENCY    = 100.00 PERCENT



                                                - - - RADIATION PATTERNS - - -

  - - ANGLES - -           - POWER GAINS -       - - - POLARIZATION - - -    - - - E(THETA) - - -    - - - E(PHI) - - -
  THETA     PHI        VERT.   HOR.    TOTAL      AXIAL     TILT   SENSE     MAGNITUDE    PHASE      MAGNITUDE    PHASE 
 DEGREES  DEGREES       DB      DB      DB        RATIO     DEG.              VOLTS/M    DEGREES      VOLTS/M    DEGREES
 -180.00     0.00       2.12 -999.99    2.12    0.00000     0.00  LINEAR    8.23590E-01    88.64    0.00000E+00     0.00
 -170.00     0.00       1.93 -999.99    1.93    0.00000     0.00  LINEAR    8.05573E-01    88.64    0.00000E+00     0.00
 -160.00     0.00       1.35 -999.99    1.35    0.00000     0.00  LINEAR    7.53691E-01    88.66    0.00000E+00     0.00
 -150.00     0.00       0.38 -999.99    0.38    0.00000     0.00  LINEAR    6.73834E-01    88.69    0.00000E+00     0.00
 -140.00     0.00      -1.02 -999.99   -1.02    0.00000     0.00  LINEAR    5.74046E-01    88.73    0.00000E+00     0.00
 -130.00     0.00      -2.89 -999.99   -2.89    0.00000     0.00  LINEAR    4.62583E-01    88.78    0.00000E+00     0.00
 -120.00     0.00      -5.41 -999.99   -5.41    0.00000     0.00  LINEAR    3.46252E-01    88.82    0.00000E+00     0.00
 -110.00     0.00      -8.98 -999.99   -8.98    0.00000     0.00  LINEAR    2.29467E-01    88.86    0.00000E+00     0.00
 -100.00     0.00     -15.05 -999.99  -15.05    0.00000     0.00  LINEAR    1.14102E-01    88.89    0.00000E+00     0.00
  -90.00     0.00    -999.99 -999.99 -999.99    0.00000     0.00            3.32925E-12    88.90    0.00000E+00     0.00
  -80.00     0.00     -15.05 -999.99  -15.05    0.00000     0.00  LINEAR    1.14102E-01   -91.11    0.00000E+00     0.00
  -70.00     0.00      -8.98 -999.99   -8.98    0.00000     0.00  LINEAR    2.29467E-01   -91.14    0.00000E+00     0.00
  -60.00     0.00      -5.41 -999.99   -5.41    0.00000     0.00  LINEAR    3.46252E-01   -91.18    0.00000E+00     0.00
  -50.00     0.00      -2.89 -999.99   -2.89    0.00000     0.00  LINEAR    4.62583E-01   -91.22    0.00000E+00     0.00
  -40.00     0.00      -1.02 -999.99   -1.02    0.00000     0.00  LINEAR    5.74046E-01   -91.27    0.00000E+00     0.00
  -30.00     0.00       0.38 -999.99    0.38    0.00000     0.00  LINEAR    6.73834E-01   -91.31    0.00000E+00     0.00
  -20.00     0.00       1.35 -999.99    1.35    0.00000     0.00  LINEAR    7.53691E-01   -91.34    0.00000E+00     0.00
  -10.00     0.00       1.93 -999.99    1.93    0.00000     0.00  LINEAR    8.05573E-01   -91.36    0.00000E+00     0.00
    0.00     0.00       2.12 -999.99    2.12    0.00000     0.00  LINEAR    8.23590E-01   -91.36    0.00000E+00     0.00
   10.00     0.00       1.93 -999.99    1.93    0.00000     0.00  LINEAR    8.05573E-01   -91.35    0.00000E+00     0.00
   20.00     0.00       1.35 -999.99    1.35    0.00000     0.00  LINEAR    7.53691E-01   -91.32    0.00000E+00     0.00
   30.00     0.00       0.38 -999.99    0.38    0.00000     0.00  LINEAR    6.73834E-01   -91.27    0.00000E+00     0.00
   40.00     0.00      -1.02 -999.99   -1.02    0.00000     0.00  LINEAR    5.74046E-01   -91.22    0.00000E+00     0.00
   50.00     0.00      -2.89 -999.99   -2.89    0.00000     0.00  LINEAR    4.62583E-01   -91.17    0.00000E+00     0.00
   60.00     0.00      -5.41 -999.99   -5.41    0.00000     0.00  LINEAR    3.46252E-01   -91.11    0.00000E+00     0.00
   70.00     0.00      -8.98 -999.99   -8.98    0.00000     0.00  LINEAR    2.29467E-01   -91.07    0.00000E+00     0.00
   80.00     0.00     -15.05 -999.99  -15.05    0.00000     0.00  LINEAR    1.14102E-01   -91.04    0.00000E+00     0.00
   90.00     0.00    -999.99 -999.99 -999.99    0.00000     0.00            3.32925E-12    88.97    0.00000E+00     0.00
  100.00     0.00     -15.05 -999.99  -15.05    0.00000     0.00  LINEAR    1.14102E-01    88.96    0.00000E+00     0.00
  110.00     0.00      -8.98 -999.99   -8.98    0.00000     0.00  LINEAR    2.29467E-01    88.93    0.00000E+00     0.00
  120.00     0.00      -5.41 -999.99   -5.41    0.00000     0.00  LINEAR    3.46252E-01    88.89    0.00000E+00     0.00
  130.00     0.00      -2.89 -999.99   -2.89    0.00000     0.00  LINEAR    4.62583E-01    88.83    0.00000E+00     0.00
  140.00     0.00      -1.02 -999.99   -1.02    0.00000     0.00  LINEAR    5.74046E-01    88.78    0.00000E+00     0.00
  150.00     0.00       0.38 -999.99    0.38    0.00000     0.00  LINEAR    6.73834E-01    88.73    0.00000E+00     0.00
  160.00     0.00       1.35 -999.99    1.35    0.00000     0.00  LINEAR    7.53691E-01    88.68    0.00000E+00     0.00
  170.00     0.00       1.93 -999.99    1.93    0.00000     0.00  LINEAR    8.05573E-01    88.65    0.00000E+00     0.00
 -180.00    10.00       1.99  -13.09    2.12    0.00000    10.00  LINEAR    8.11078E-01    88.64    1.43015E-01    88.64
 -170.00    10.00       1.80  -13.14    1.93    0.00000    10.15  LINEAR    7.93498E-01    88.64    1.42074E-01    88.64
 -160.00    10.00       1.22  -13.31    1.37    0.00000    10.63  LINEAR    7.42836E-01    88.66    1.39388E-01    88.66
 -150.00    10.00       0.26  -13.57    0.43    0.00000    11.51  LINEAR    6.64744E-01    88.69    1.35345E-01    88.69
 -140.00    10.00      -1.12  -13.88   -0.90    0.00000    12.96  LINEAR    5.66959E-01    88.73    1.30502E-01    88.73
 -130.00    10.00      -2.99  -14.22   -2.67    0.00000    15.34  LINEAR    4.57447E-01    88.77    1.25485E-01    88.77
 -120.00    10.00      -5.49  -14.55   -4.98    0.00000    19.43  LINEAR    3.42823E-01    88.82    1.20898E-01    88.82
 -110.00    10.00      -9.06  -14.81   -8.03    0.00000    27.27  LINEAR    2.27423E-01    88.85    1.17247E-01    88.85
 -100.00    10.00     -15.12  -14.99  -12.04    0.00000    45.44  LINEAR    1.13161E-01    88.88    1.14907E-01    88.88
  -90.00    10.00    -999.99  -15.05  -15.05    0.00000    90.00  LINEAR    3.30258E-12    88.89    1.14102E-01    88.89
  -80.00    10.00     -15.12  -14.99  -12.04    0.00000   -45.44  LINEAR    1.13161E-01   -91.12    1.14907E-01    88.88
  -70.00    10.00      -9.06  -14.81   -8.03    0.00000   -27.27  LINEAR    2.27423E-01   -91.15    1.17247E-01    88.85
  -60.00    10.00      -5.49  -14.55   -4.98    0.00000   -19.43  LINEAR    3.42823E-01   -91.18    1.20898E-01    88.82
  -50.00    10.00      -2.99  -14.22   -2.67    0.00000   -15.34  LINEAR    4.57447E-01   -91.23    1.25485E-01    88.77
  -40.00    10.00      -1.12  -13.88   -0.90    0.00000   -12.96  LINEAR    5.66959E-01   -91.27    1.30502E-01    88.73
  -30.00    10.00       0.26  -13.57    0.43    0.00000   -11.51  LINEAR    6.64744E-01   -91.31    1.35345E-01    88.69
  -20.00    10.00       1.22  -13.31    1.37    0.00000   -10.63  LINEAR    7.42836E-01   -91.34    1.39388E-01    88.66
  -10.00    10.00       1.80  -13.14    1.93    0.00000   -10.15  LINEAR    7.93498E-01   -91.36    1.42074E-01    88.64
    0.00    10.00       1.99  -13.09    2.12    0.00000   -10.00  LINEAR    8.11078E-01   -91.36    1.43015E-01    88.64
   10.00    10.00       1.80  -13.14    1.93    0.00000   -10.15  LINEAR    7.93498E-01   -91.35    1.42074E-01    88.65
   20.00    10.00       1.22  -13.31    1.37    0.00000   -10.63  LINEAR    7.42836E-01   -91.32    1.39388E-01    88.68
   30.00    10.00       0.26  -13.57    0.43    0.00000   -11.51  LINEAR    6.64744E-01   -91.28    1.35345E-01    88.72
   40.00    10.00      -1.12  -13.88   -0.90    0.00000   -12.96  LINEAR    5.66959E-01   -91.23    1.30502E-01    88.77
   50.00    10.00      -2.99  -14.22   -2.67    0.00000   -15.34  LINEAR    4.57447E-01   -91.17    1.25485E-01    88.83
   60.00    10.00      -5.49  -14.55   -4.98    0.00000   -19.43  LINEAR    3.42823E-01   -91.12    1.20898E-01    88.88
   70.00    10.00      -9.06  -14.81   -8.03    0.00000   -27.27  LINEAR    2.27423E-01   -91.08    1.17247E-01    88.92
   80.00    10.00     -15.12  -14.99  -12.04    0.00000   -45.44  LINEAR    1.13161E-01   -91.05    1.14907E-01    88.95
   90.00    10.00    -999.99  -15.05  -15.05    0.00000    90.00  LINEAR    3.30258E-12    88.96    1.14102E-01    88.96
  100.00    10.00     -15.12  -14.99  -12.04    0.00000    45.44  LINEAR    1.13161E-01    88.95    1.14907E-01    88.95
  110.00    10.00      -9.06  -14.81   -8.03    0.00000    27.27  LINEAR    2.27423E-01    88.92    1.17247E-01    88.92
  120.00    10.00      -5.49  -14.55   -4.98    0.00000    19.43  LINEAR    3.42823E-01    88.88    1.20898E-01    88.88
  130.00    10.00      -2.99  -14.22   -2.67    0.00000    15.34  LINEAR    4.57447E-01    88.83    1.25485E-01    88.83
  140.00    10.00      -1.12  -13.88   -0.90    0.00000    12.96  LINEAR    5.66959E-01    88.77    1.30502E-01    88.77
  150.00    10.00       0.26  -13.57    0.43    0.00000    11.51  LINEAR    6.64744E-01    88.72    1.35345E-01    88.72
  160.00    10.00       1.22  -13.31    1.37    0.00000    10.63  LINEAR    7.42836E-01    88.68    1.39388E-01    88.68
  170.00    10.00       1.80  -13.14    1.93    0.00000    10.15  LINEAR    7.93498E-01    88.65    1.42074E-01    88.65
 -180.00    20.00       1.58   -7.20    2.12    0.00000    20.00  LINEAR    7.73921E-01    88.64    2.81684E-01    88.64
 -170.00    20.00       1.39   -7.25    1.95    0.00000    20.28  LINEAR    7.57595E-01    88.64    2.79996E-01    88.64
 -160.00    20.00       0.84   -7.40    1.44    0.00000    21.17  LINEAR    7.10443E-01    88.66    2.75175E-01    88.66
 -150.00    20.00      -0.11   -7.64    0.60    0.00000    22.80  LINEAR    6.37451E-01    88.68    2.67906E-01    88.68
 -140.00    20.00      -1.46   -7.92   -0.58    0.00000    25.41  LINEAR    5.45491E-01    88.72    2.59179E-01    88.72
 -130.00    20.00      -3.29   -8.23   -2.08    0.00000    29.52  LINEAR    4.41719E-01    88.76    2.50118E-01    88.76
 -120.00    20.00      -5.77   -8.53   -3.92    0.00000    36.05  LINEAR    3.32185E-01    88.80    2.41811E-01    88.80
 -110.00    20.00      -9.31   -8.77   -6.02    0.00000    46.78  LINEAR    2.21002E-01    88.83    2.35186E-01    88.83
 -100.00    20.00     -15.35   -8.93   -8.03    0.00000    64.49  LINEAR    1.10176E-01    88.85    2.30932E-01    88.85
  -90.00    20.00    -999.99   -8.98   -8.98    0.00000    90.00  LINEAR    3.21762E-12    88.86    2.29467E-01    88.86
  -80.00    20.00     -15.35   -8.93   -8.03    0.00000   -64.49  LINEAR    1.10176E-01   -91.15    2.30932E-01    88.85
  -70.00    20.00      -9.31   -8.77   -6.02    0.00000   -46.78  LINEAR    2.21002E-01   -91.17    2.35186E-01    88.83
  -60.00    20.00      -5.77   -8.53   -3.92    0.00000   -36.05  LINEAR    3.32185E-01   -91.20    2.41811E-01    88.80
  -50.00    20.00      -3.29   -8.23   -2.08    0.00000   -29.52  LINEAR    4.41719E-01   -91.24    2.50118E-01    88.76
  -40.00    20.00      -1.46   -7.92   -0.58    0.00000   -25.41  LINEAR    5.45491E-01   -91.28    2.59179E-01    88.72
  -30.00    20.00      -0.11   -7.64    0.60    0.00000   -22.80  LINEAR    6.37451E-01   -91.32    2.67906E-01    88.68
  -20.00    20.00       0.84   -7.40    1.44    0.00000   -21.17  LINEAR    7.10443E-01   -91.34    2.75175E-01    88.66
  -10.00    20.00       1.39   -7.25    1.95    0.00000   -20.28  LINEAR    7.57595E-01   -91.36    2.79996E-01    88.64
    0.00    20.00       1.58   -7.20    2.12    0.00000   -20.00  LINEAR    7.73921E-01   -91.36    2.81684E-01    88.64
   10.00    20.00       1.39   -7.25    1.95    0.00000   -20.28  LINEAR    7.57595E-01   -91.35    2.79996E-01    88.65
   20.00    20.00       0.84   -7.40    1.44    0.00000   -21.17  LINEAR    7.10443E-01   -91.32    2.75175E-01    88.68
   30.00    20.00      -0.11   -7.64    0.60    0.00000   -22.80  LINEAR    6.37451E-01   -91.28    2.67906E-01    88.72
   40.00    20.00      -1.46   -7.92   -0.58    0.00000   -25.41  LINEAR    5.45491E-01   -91.24    2.59179E-01    88.76
   50.00    20.00      -3.29   -8.23   -2.08    0.00000   -29.52  LINEAR    4.41719E-01   -91.19    2.50118E-01    88.81
   60.00    20.00      -5.77   -8.53   -3.92    0.00000   -36.05  LINEAR    3.32185E-01   -91.14    2.41811E-01    88.86
   70.00    20.00      -9.31   -8.77   -6.02    0.00000   -46.78  LINEAR    2.21002E-01   -91.10    2.35186E-01    88.90
   80.00    20.00     -15.35   -8.93   -8.03    0.00000   -64.49  LINEAR    1.10176E-01   -91.08    2.30932E-01    88.92
   90.00    20.00    -999.99   -8.98   -8.98    0.00000    90.00  LINEAR    3.21762E-12    88.93    2.29467E-01    88.93
  100.00    20.00     -15.35   -8.93   -8.03    0.00000    64.49  LINEAR    1.10176E-01    88.92    2.30932E-01    88.92
  110.00    20.00      -9.31   -8.77   -6.02    0.00000    46.78  LINEAR    2.21002E-01    88.90    2.35186E-01    88.90
  120.00    20.00      -5.77   -8.53   -3.92    0.00000    36.05  LINEAR    3.32185E-01    88.86    2.41811E-01    88.86
  130.00    20.00      -3.29   -8.23   -2.08    0.00000    29.52  LINEAR    4.41719E-01    88.81    2.50118E-01    88.81
  140.00    20.00      -1.46   -7.92   -0.58    0.00000    25.41  LINEAR    5.45491E-01    88.76    2.59179E-01    88.76
  150.00    20.00      -0.11   -7.64    0.60    0.00000    22.80  LINEAR    6.37451E-01    88.72    2.67906E-01    88.72
  160.00    20.00       0.84   -7.40    1.44    0.00000    21.17  LINEAR    7.10443E-01    88.68    2.75175E-01    88.68
  170.00    20.00       1.39   -7.25    1.95    0.00000    20.28  LINEAR    7.57595E-01    88.65    2.79996E-01    88.65
 -180.00    30.00       0.87   -3.90    2.12    0.00000    30.00  LINEAR    7.13250E-01    88.64    4.11795E-01    88.64
 -170.00    30.00       0.69   -3.95    1.98    0.00000    30.38  LINEAR    6.98837E-01    88.64    4.09698E-01    88.64
 -160.00    30.00       0.16   -4.07    1.55    0.00000    31.57  LINEAR    6.57064E-01    88.65    4.03702E-01    88.65
 -150.00    30.00      -0.75   -4.27    0.85    0.00000    33.69  LINEAR    5.91960E-01    88.67    3.94640E-01    88.67
 -140.00    30.00      -2.06   -4.51   -0.10    0.00000    37.00  LINEAR    5.09137E-01    88.70    3.83725E-01    88.70
 -130.00    30.00      -3.84   -4.78   -1.27    0.00000    41.93  LINEAR    4.14551E-01    88.74    3.72349E-01    88.74
 -120.00    30.00      -6.27   -5.02   -2.59    0.00000    49.11  LINEAR    3.13398E-01    88.77    3.61881E-01    88.77
 -110.00    30.00      -9.77   -5.23   -3.92    0.00000    59.36  LINEAR    2.09414E-01    88.80    3.53504E-01    88.80
 -100.00    30.00     -15.80   -5.36   -4.98    0.00000    73.26  LINEAR    1.04701E-01    88.82    3.48111E-01    88.82
  -90.00    30.00    -999.99   -5.41   -5.41    0.00000    90.00  LINEAR    3.06078E-12    88.82    3.46252E-01    88.82
  -80.00    30.00     -15.80   -5.36   -4.98    0.00000   -73.26  LINEAR    1.04701E-01   -91.18    3.48111E-01    88.82
  -70.00    30.00      -9.77   -5.23   -3.92    0.00000   -59.36  LINEAR    2.09414E-01   -91.20    3.53504E-01    88.80
  -60.00    30.00      -6.27   -5.02   -2.59    0.00000   -49.11  LINEAR    3.13398E-01   -91.23    3.61881E-01    88.77
  -50.00    30.00      -3.84   -4.78   -1.27    0.00000   -41.93  LINEAR    4.14551E-01   -91.26    3.72349E-01    88.74
  -40.00    30.00      -2.06   -4.51   -0.10    0.00000   -37.00  LINEAR    5.09137E-01   -91.30    3.83725E-01    88.70
  -30.00    30.00      -0.75   -4.27    0.85    0.00000   -33.69  LINEAR    5.91960E-01   -91.33    3.94640E-01    88.67
  -20.00    30.00       0.16   -4.07    1.55    0.00000   -31.57  LINEAR    6.57064E-01   -91.35    4.03702E-01    88.65
  -10.00    30.00       0.69   -3.95    1.98    0.00000   -30.38  LINEAR    6.98837E-01   -91.36    4.09698E-01    88.64
    0.00    30.00       0.87   -3.90    2.12    0.00000   -30.00  LINEAR    7.13250E-01   -91.36    4.11795E-01    88.64
   10.00    30.00       0.69   -3.95    1.98    0.00000   -30.38  LINEAR    6.98837E-01   -91.35    4.09698E-01    88.65
   20.00    30.00       0.16   -4.07    1.55    0.00000   -31.57  LINEAR    6.57064E-01   -91.33    4.03702E-01    88.67
   30.00    30.00      -0.75   -4.27    0.85    0.00000   -33.69  LINEAR    5.91960E-01   -91.29    3.94640E-01    88.71
   40.00    30.00      -2.06   -4.51   -0.10    0.00000   -37.00  LINEAR    5.09137E-01   -91.26    3.83725E-01    88.74
   50.00    30.00      -3.84   -4.78   -1.27    0.00000   -41.93  LINEAR    4.14551E-01   -91.21    3.72349E-01    88.79
   60.00    30.00      -6.27   -5.02   -2.59    0.00000   -49.11  LINEAR    3.13398E-01   -91.18    3.61881E-01    88.82
   70.00    30.00      -9.77   -5.23   -3.92    0.00000   -59.36  LINEAR    2.09414E-01   -91.14    3.53504E-01    88.86
   80.00    30.00     -15.80   -5.36   -4.98    0.00000   -73.26  LINEAR    1.04701E-01   -91.12    3.48111E-01    88.88
   90.00    30.00    -999.99   -5.41   -5.41    0.00000    90.00  LINEAR    3.06078E-12    88.89    3.46252E-01    88.89
  100.00    30.00     -15.80   -5.36   -4.98    0.00000    73.26  LINEAR    1.04701E-01    88.88    3.48111E-01    88.88
  110.00    30.00      -9.77   -5.23   -3.92    0.00000    59.36  LINEAR    2.09414E-01    88.86    3.53504E-01    88.86
  120.00    30.00      -6.27   -5.02   -2.59    0.00000    49.11  LINEAR    3.13398E-01    88.82    3.61881E-01    88.82
  130.00    30.00      -3.84   -4.78   -1.27    0.00000    41.93  LINEAR    4.14551E-01    88.79    3.72349E-01    88.79
  140.00    30.00      -2.06   -4.51   -0.10    0.00000    37.00  LINEAR    5.09137E-01    88.74    3.83725E-01    88.74
  150.00    30.00      -0.75   -4.27    0.85    0.00000    33.69  LINEAR    5.91960E-01    88.71    3.94640E-01    88.71
  160.00    30.00       0.16   -4.07    1.55    0.00000    31.57  LINEAR    6.57064E-01    88.67    4.03702E-01    88.67
  170.00    30.00       0.69   -3.95    1.98    0.00000    30.38  LINEAR    6.98837E-01    88.65    4.09698E-01    88.65
 -180.00    40.00      -0.20   -1.72    2.12    0.00000    40.00  LINEAR    6.30906E-01    88.64    5.29393E-01    88.64
 -170.00    40.00      -0.36   -1.75    2.01    0.00000    40.43  LINEAR    6.18845E-01    88.64    5.27283E-01    88.64
 -160.00    40.00      -0.87   -1.85    1.68    0.00000    41.76  LINEAR    5.83728E-01    88.65    5.21240E-01    88.65
 -150.00    40.00      -1.73   -2.01    1.14    0.00000    44.10  LINEAR    5.28512E-01    88.67    5.12080E-01    88.67
 -140.00    40.00      -2.99   -2.20    0.43    0.00000    47.61  LINEAR    4.57383E-01    88.69    5.01003E-01    88.69
 -130.00    40.00      -4.72   -2.40   -0.40    0.00000    52.55  LINEAR    3.74906E-01    88.71    4.89404E-01    88.71
 -120.00    40.00      -7.09   -2.59   -1.27    0.00000    59.21  LINEAR    2.85236E-01    88.74    4.78683E-01    88.74
 -110.00    40.00     -10.55   -2.75   -2.08    0.00000    67.82  LINEAR    1.91601E-01    88.76    4.70067E-01    88.76
 -100.00    40.00     -16.54   -2.86   -2.67    0.00000    78.31  LINEAR    9.61272E-02    88.77    4.64504E-01    88.77
  -90.00    40.00    -999.99   -2.89   -2.89    0.00000    90.00  LINEAR    2.81356E-12    88.78    4.62583E-01    88.78
  -80.00    40.00     -16.54   -2.86   -2.67    0.00000   -78.31  LINEAR    9.61272E-02   -91.23    4.64504E-01    88.77
  -70.00    40.00     -10.55   -2.75   -2.08    0.00000   -67.82  LINEAR    1.91601E-01   -91.24    4.70067E-01    88.76
  -60.00    40.00      -7.09   -2.59   -1.27    0.00000   -59.21  LINEAR    2.85236E-01   -91.26    4.78683E-01    88.74
  -50.00    40.00      -4.72   -2.40   -0.40    0.00000   -52.55  LINEAR    3.74906E-01   -91.29    4.89404E-01    88.71
  -40.00    40.00      -2.99   -2.20    0.43    0.00000   -47.61  LINEAR    4.57383E-01   -91.31    5.01003E-01    88.69
  -30.00    40.00      -1.73   -2.01    1.14    0.00000   -44.10  LINEAR    5.28512E-01   -91.33    5.12080E-01    88.67
  -20.00    40.00      -0.87   -1.85    1.68    0.00000   -41.76  LINEAR    5.83728E-01   -91.35    5.21240E-01    88.65
  -10.00    40.00      -0.36   -1.75    2.01    0.00000   -40.43  LINEAR    6.18845E-01   -91.36    5.27283E-01    88.64
    0.00    40.00      -0.20   -1.72    2.12    0.00000   -40.00  LINEAR    6.30906E-01   -91.36    5.29393E-01    88.64
   10.00    40.00      -0.36   -1.75    2.01    0.00000   -40.43  LINEAR    6.18845E-01   -91.35    5.27283E-01    88.65
   20.00    40.00      -0.87   -1.85    1.68    0.00000   -41.76  LINEAR    5.83728E-01   -91.33    5.21240E-01    88.67
   30.00    40.00      -1.73   -2.01    1.14    0.00000   -44.10  LINEAR    5.28512E-01   -91.31    5.12080E-01    88.69
   40.00    40.00      -2.99   -2.20    0.43    0.00000   -47.61  LINEAR    4.57383E-01   -91.28    5.01003E-01    88.72
   50.00    40.00      -4.72   -2.40   -0.40    0.00000   -52.55  LINEAR    3.74906E-01   -91.24    4.89404E-01    88.76
   60.00    40.00      -7.09   -2.59   -1.27    0.00000   -59.21  LINEAR    2.85236E-01   -91.21    4.78683E-01    88.79
   70.00    40.00     -10.55   -2.75   -2.08    0.00000   -67.82  LINEAR    1.91601E-01   -91.19    4.70067E-01    88.81
   80.00    40.00     -16.54   -2.86   -2.67    0.00000   -78.31  LINEAR    9.61272E-02   -91.17    4.64504E-01    88.83
   90.00    40.00    -999.99   -2.89   -2.89    0.00000    90.00  LINEAR    2.81356E-12    88.83    4.62583E-01    88.83
  100.00    40.00     -16.54   -2.86   -2.67    0.00000    78.31  LINEAR    9.61272E-02    88.83    4.64504E-01    88.83
  110.00    40.00     -10.55   -2.75   -2.08    0.00000    67.82  LINEAR    1.91601E-01    88.81    4.70067E-01    88.81
  120.00    40.00      -7.09   -2.59   -1.27    0.00000    59.21  LINEAR    2.85236E-01    88.79    4.78683E-01    88.79
  130.00    40.00      -4.72   -2.40   -0.40    0.00000    52.55  LINEAR    3.74906E-01    88.76    4.89404E-01    88.76
  140.00    40.00      -2.99   -2.20    0.43    0.00000    47.61  LINEAR    4.57383E-01    88.72    5.01003E-01    88.72
  150.00    40.00      -1.73   -2.01    1.14    0.00000    44.10  LINEAR    5.28512E-01    88.69    5.12080E-01    88.69
  160.00    40.00      -0.87   -1.85    1.68    0.00000    41.76  LINEAR    5.83728E-01    88.67    5.21240E-01    88.67
  170.00    40.00      -0.36   -1.75    2.01    0.00000    40.43  LINEAR    6.18845E-01    88.65    5.27283E-01    88.65
 -180.00    50.00      -1.72   -0.20    2.12    0.00000    50.00  LINEAR    5.29393E-01    88.64    6.30906E-01    88.64
 -170.00    50.00      -1.88   -0.22    2.04    0.00000    50.43  LINEAR    5.19887E-01    88.64    6.29135E-01    88.64
 -160.00    50.00      -2.35   -0.29    1.81    0.00000    51.74  LINEAR    4.92064E-01    88.65    6.24054E-01    88.65
 -150.00    50.00      -3.17   -0.40    1.44    0.00000    53.99  LINEAR    4.47874E-01    88.66    6.16327E-01    88.66
 -140.00    50.00      -4.37   -0.53    0.97    0.00000    57.27  LINEAR    3.90136E-01    88.67    6.06944E-01    88.67
 -130.00    50.00      -6.04   -0.67    0.43    0.00000    61.66  LINEAR    3.22038E-01    88.69    5.97072E-01    88.69
 -120.00    50.00      -8.35   -0.81   -0.10    0.00000    67.24  LINEAR    2.46654E-01    88.70    5.87901E-01    88.70
 -110.00    50.00     -11.76   -0.92   -0.58    0.00000    73.99  LINEAR    1.66597E-01    88.72    5.80499E-01    88.72
 -100.00    50.00     -17.72   -0.99   -0.90    0.00000    81.71  LINEAR    8.38849E-02    88.73    5.75705E-01    88.73
  -90.00    50.00    -999.99   -1.02   -1.02    0.00000    90.00  LINEAR    2.45833E-12    88.73    5.74046E-01    88.73
  -80.00    50.00     -17.72   -0.99   -0.90    0.00000   -81.71  LINEAR    8.38849E-02   -91.27    5.75705E-01    88.73
  -70.00    50.00     -11.76   -0.92   -0.58    0.00000   -73.99  LINEAR    1.66597E-01   -91.28    5.80499E-01    88.72
  -60.00    50.00      -8.35   -0.81   -0.10    0.00000   -67.24  LINEAR    2.46654E-01   -91.30    5.87901E-01    88.70
  -50.00    50.00      -6.04   -0.67    0.43    0.00000   -61.66  LINEAR    3.22038E-01   -91.31    5.97072E-01    88.69
  -40.00    50.00      -4.37   -0.53    0.97    0.00000   -57.27  LINEAR    3.90136E-01   -91.33    6.06944E-01    88.67
  -30.00    50.00      -3.17   -0.40    1.44    0.00000   -53.99  LINEAR    4.47874E-01   -91.34    6.16327E-01    88.66
  -20.00    50.00      -2.35   -0.29    1.81    0.00000   -51.74  LINEAR    4.92064E-01   -91.35    6.24054E-01    88.65
  -10.00    50.00      -1.88   -0.22    2.04    0.00000   -50.43  LINEAR    5.19887E-01   -91.36    6.29135E-01    88.64
    0.00    50.00      -1.72   -0.20    2.12    0.00000   -50.00  LINEAR    5.29393E-01   -91.36    6.30906E-01    88.64
   10.00    50.00      -1.88   -0.22    2.04    0.00000   -50.43  LINEAR    5.19887E-01   -91.35    6.29135E-01    88.65
   20.00    50.00      -2.35   -0.29    1.81    0.00000   -51.74  LINEAR    4.92064E-01   -91.34    6.24054E-01    88.66
   30.00    50.00      -3.17   -0.40    1.44    0.00000   -53.99  LINEAR    4.47874E-01   -91.32    6.16327E-01    88.68
   40.00    50.00      -4.37   -0.53    0.97    0.00000   -57.27  LINEAR    3.90136E-01   -91.30    6.06944E-01    88.70
   50.00    50.00      -6.04   -0.67    0.43    0.00000   -61.66  LINEAR    3.22038E-01   -91.28    5.97072E-01    88.72
   60.00    50.00      -8.35   -0.81   -0.10    0.00000   -67.24  LINEAR    2.46654E-01   -91.26    5.87901E-01    88.74
   70.00    50.00     -11.76   -0.92   -0.58    0.00000   -73.99  LINEAR    1.66597E-01   -91.24    5.80499E-01    88.76
   80.00    50.00     -17.72   -0.99   -0.90    0.00000   -81.71  LINEAR    8.38849E-02   -91.23    5.75705E-01    88.77
   90.00    50.00    -999.99   -1.02   -1.02    0.00000    90.00  LINEAR    2.45833E-12    88.78    5.74046E-01    88.78
  100.00    50.00     -17.72   -0.99   -0.90    0.00000    81.71  LINEAR    8.38849E-02    88.77    5.75705E-01    88.77
  110.00    50.00     -11.76   -0.92   -0.58    0.00000    73.99  LINEAR    1.66597E-01    88.76    5.80499E-01    88.76
  120.00    50.00      -8.35   -0.81   -0.10    0.00000    67.24  LINEAR    2.46654E-01    88.74    5.87901E-01    88.74
  130.00    50.00      -6.04   -0.67    0.43    0.00000    61.66  LINEAR    3.22038E-01    88.72    5.97072E-01    88.72
  140.00    50.00      -4.37   -0.53    0.97    0.00000    57.27  LINEAR    3.90136E-01    88.70    6.06944E-01    88.70
  150.00    50.00      -3.17   -0.40    1.44    0.00000    53.99  LINEAR    4.47874E-01    88.68    6.16327E-01    88.68
  160.00    50.00      -2.35   -0.29    1.81    0.00000    51.74  LINEAR    4.92064E-01    88.66    6.24054E-01    88.66
  170.00    50.00      -1.88   -0.22    2.04    0.00000    50.43  LINEAR    5.19887E-01    88.65    6.29135E-01    88.65
 -180.00    60.00      -3.90    0.87    2.12    0.00000    60.00  LINEAR    4.11795E-01    88.64    7.13250E-01    88.64
 -170.00    60.00      -4.05    0.86    2.07    0.00000    60.38  LINEAR    4.04850E-01    88.64    7.12037E-01    88.64
 -160.00    60.00      -4.50    0.81    1.93    0.00000    61.52  LINEAR    3.84414E-01    88.64    7.08555E-01    88.64
 -150.00    60.00      -5.27    0.75    1.72    0.00000    63.43  LINEAR    3.51622E-01    88.65    7.03244E-01    88.65
 -140.00    60.00      -6.42    0.67    1.44    0.00000    66.14  LINEAR    3.08164E-01    88.66    6.96768E-01    88.66
 -130.00    60.00      -8.03    0.58    1.14    0.00000    69.64  LINEAR    2.56040E-01    88.67    6.89924E-01    88.67
 -120.00    60.00     -10.29    0.50    0.85    0.00000    73.90  LINEAR    1.97320E-01    88.67    6.83537E-01    88.67
 -110.00    60.00     -13.66    0.43    0.60    0.00000    78.83  LINEAR    1.33953E-01    88.68    6.78362E-01    88.68
 -100.00    60.00     -19.59    0.39    0.43    0.00000    84.27  LINEAR    6.76726E-02    88.69    6.74999E-01    88.69
  -90.00    60.00    -999.99    0.38    0.38    0.00000    90.00  LINEAR    1.98551E-12    88.69    6.73834E-01    88.69
  -80.00    60.00     -19.59    0.39    0.43    0.00000   -84.27  LINEAR    6.76726E-02   -91.31    6.74999E-01    88.69
  -70.00    60.00     -13.66    0.43    0.60    0.00000   -78.83  LINEAR    1.33953E-01   -91.32    6.78362E-01    88.68
  -60.00    60.00     -10.29    0.50    0.85    0.00000   -73.90  LINEAR    1.97320E-01   -91.33    6.83537E-01    88.67
  -50.00    60.00      -8.03    0.58    1.14    0.00000   -69.64  LINEAR    2.56040E-01   -91.33    6.89924E-01    88.67
  -40.00    60.00      -6.42    0.67    1.44    0.00000   -66.14  LINEAR    3.08164E-01   -91.34    6.96768E-01    88.66
  -30.00    60.00      -5.27    0.75    1.72    0.00000   -63.43  LINEAR    3.51622E-01   -91.35    7.03244E-01    88.65
  -20.00    60.00      -4.50    0.81    1.93    0.00000   -61.52  LINEAR    3.84414E-01   -91.36    7.08555E-01    88.64
  -10.00    60.00      -4.05    0.86    2.07    0.00000   -60.38  LINEAR    4.04850E-01   -91.36    7.12037E-01    88.64
    0.00    60.00      -3.90    0.87    2.12    0.00000   -60.00  LINEAR    4.11795E-01   -91.36    7.13250E-01    88.64
   10.00    60.00      -4.05    0.86    2.07    0.00000   -60.38  LINEAR    4.04850E-01   -91.35    7.12037E-01    88.65
   20.00    60.00      -4.50    0.81    1.93    0.00000   -61.52  LINEAR    3.84414E-01   -91.35    7.08555E-01    88.65
   30.00    60.00      -5.27    0.75    1.72    0.00000   -63.43  LINEAR    3.51622E-01   -91.33    7.03244E-01    88.67
   40.00    60.00      -6.42    0.67    1.44    0.00000   -66.14  LINEAR    3.08164E-01   -91.32    6.96768E-01    88.68
   50.00    60.00      -8.03    0.58    1.14    0.00000   -69.64  LINEAR    2.56040E-01   -91.31    6.89924E-01    88.69
   60.00    60.00     -10.29    0.50    0.85    0.00000   -73.90  LINEAR    1.97320E-01   -91.29    6.83537E-01    88.71
   70.00    60.00     -13.66    0.43    0.60    0.00000   -78.83  LINEAR    1.33953E-01   -91.28    6.78362E-01    88.72
   80.00    60.00     -19.59    0.39    0.43    0.00000   -84.27  LINEAR    6.76726E-02   -91.28    6.74999E-01    88.72
   90.00    60.00    -999.99    0.38    0.38    0.00000    90.00  LINEAR    1.98551E-12    88.73    6.73834E-01    88.73
  100.00    60.00     -19.59    0.39    0.43    0.00000    84.27  LINEAR    6.76726E-02    88.72    6.74999E-01    88.72
  110.00    60.00     -13.66    0.43    0.60    0.00000    78.83  LINEAR    1.33953E-01    88.72    6.78362E-01    88.72
  120.00    60.00     -10.29    0.50    0.85    0.00000    73.90  LINEAR    1.97320E-01    88.71    6.83537E-01    88.71
  130.00    60.00      -8.03    0.58    1.14    0.00000    69.64  LINEAR    2.56040E-01    88.69    6.89924E-01    88.69
  140.00    60.00      -6.42    0.67    1.44    0.00000    66.14  LINEAR    3.08164E-01    88.68    6.96768E-01    88.68
  150.00    60.00      -5.27    0.75    1.72    0.00000    63.43  LINEAR    3.51622E-01    88.67    7.03244E-01    88.67
  160.00    60.00      -4.50    0.81    1.93    0.00000    61.52  LINEAR    3.84414E-01    88.65    7.08555E-01    88.65
  170.00    60.00      -4.05    0.86    2.07    0.00000    60.38  LINEAR    4.04850E-01    88.65    7.12037E-01    88.65
 -180.00    70.00      -7.20    1.58    2.12    0.00000    70.00  LINEAR    2.81684E-01    88.64    7.73921E-01    88.64
 -170.00    70.00      -7.34    1.57    2.10    0.00000    70.28  LINEAR    2.77184E-01    88.64    7.73306E-01    88.64
 -160.00    70.00      -7.77    1.55    2.03    0.00000    71.12  LINEAR    2.63880E-01    88.64    7.71535E-01    88.64
 -150.00    70.00      -8.51    1.52    1.93    0.00000    72.50  LINEAR    2.42340E-01    88.64    7.68827E-01    88.64
 -140.00    70.00      -9.61    1.48    1.81    0.00000    74.42  LINEAR    2.13439E-01    88.65    7.65516E-01    88.65
 -130.00    70.00     -11.17    1.44    1.68    0.00000    76.83  LINEAR    1.78275E-01    88.65    7.62003E-01    88.65
 -120.00    70.00     -13.39    1.41    1.55    0.00000    79.69  LINEAR    1.38074E-01    88.65    7.58712E-01    88.65
 -110.00    70.00     -16.72    1.38    1.44    0.00000    82.90  LINEAR    9.41154E-02    88.66    7.56037E-01    88.66
 -100.00    70.00     -22.63    1.36    1.37    0.00000    86.38  LINEAR    4.76735E-02    88.66    7.54295E-01    88.66
  -90.00    70.00    -999.99    1.35    1.35    0.00000    90.00  LINEAR    1.40003E-12    88.66    7.53691E-01    88.66
  -80.00    70.00     -22.63    1.36    1.37    0.00000   -86.38  LINEAR    4.76735E-02   -91.34    7.54295E-01    88.66
  -70.00    70.00     -16.72    1.38    1.44    0.00000   -82.90  LINEAR    9.41154E-02   -91.34    7.56037E-01    88.66
  -60.00    70.00     -13.39    1.41    1.55    0.00000   -79.69  LINEAR    1.38074E-01   -91.35    7.58712E-01    88.65
  -50.00    70.00     -11.17    1.44    1.68    0.00000   -76.83  LINEAR    1.78275E-01   -91.35    7.62003E-01    88.65
  -40.00    70.00      -9.61    1.48    1.81    0.00000   -74.42  LINEAR    2.13439E-01   -91.35    7.65516E-01    88.65
  -30.00    70.00      -8.51    1.52    1.93    0.00000   -72.50  LINEAR    2.42340E-01   -91.36    7.68827E-01    88.64
  -20.00    70.00      -7.77    1.55    2.03    0.00000   -71.12  LINEAR    2.63880E-01   -91.36    7.71535E-01    88.64
  -10.00    70.00      -7.34    1.57    2.10    0.00000   -70.28  LINEAR    2.77184E-01   -91.36    7.73306E-01    88.64
    0.00    70.00      -7.20    1.58    2.12    0.00000   -70.00  LINEAR    2.81684E-01   -91.36    7.73921E-01    88.64
   10.00    70.00      -7.34    1.57    2.10    0.00000   -70.28  LINEAR    2.77184E-01   -91.36    7.73306E-01    88.64
   20.00    70.00      -7.77    1.55    2.03    0.00000   -71.12  LINEAR    2.63880E-01   -91.35    7.71535E-01    88.65
   30.00    70.00      -8.51    1.52    1.93    0.00000   -72.50  LINEAR    2.42340E-01   -91.35    7.68827E-01    88.65
   40.00    70.00      -9.61    1.48    1.81    0.00000   -74.42  LINEAR    2.13439E-01   -91.34    7.65516E-01    88.66
   50.00    70.00     -11.17    1.44    1.68    0.00000   -76.83  LINEAR    1.78275E-01   -91.33    7.62003E-01    88.67
   60.00    70.00     -13.39    1.41    1.55    0.00000   -79.69  LINEAR    1.38074E-01   -91.33    7.58712E-01    88.67
   70.00    70.00     -16.72    1.38    1.44    0.00000   -82.90  LINEAR    9.41154E-02   -91.32    7.56037E-01    88.68
   80.00    70.00     -22.63    1.36    1.37    0.00000   -86.38  LINEAR    4.76735E-02   -91.32    7.54295E-01    88.68
   90.00    70.00    -999.99    1.35    1.35    0.00000    90.00  LINEAR    1.40003E-12    88.68    7.53691E-01    88.68
  100.00    70.00     -22.63    1.36    1.37    0.00000    86.38  LINEAR    4.76735E-02    88.68    7.54295E-01    88.68
  110.00    70.00     -16.72    1.38    1.44    0.00000    82.90  LINEAR    9.41154E-02    88.68    7.56037E-01    88.68
  120.00    70.00     -13.39    1.41    1.55    0.00000    79.69  LINEAR    1.38074E-01    88.67    7.58712E-01    88.67
  130.00    70.00     -11.17    1.44    1.68    0.00000    76.83  LINEAR    1.78275E-01    88.67    7.62003E-01    88.67
  140.00    70.00      -9.61    1.48    1.81    0.00000    74.42  LINEAR    2.13439E-01    88.66    7.65516E-01    88.66
  150.00    70.00      -8.51    1.52    1.93    0.00000    72.50  LINEAR    2.42340E-01    88.65    7.68827E-01    88.65
  160.00    70.00      -7.77    1.55    2.03    0.00000    71.12  LINEAR    2.63880E-01    88.65    7.71535E-01    88.65
  170.00    70.00      -7.34    1.57    2.10    0.00000    70.28  LINEAR    2.77184E-01    88.64    7.73306E-01    88.64
 -180.00    80.00     -13.09    1.99    2.12    0.00000    80.00  LINEAR    1.43015E-01    88.64    8.11078E-01    88.64
 -170.00    80.00     -13.22    1.98    2.11    0.00000    80.15  LINEAR    1.40813E-01    88.64    8.10911E-01    88.64
 -160.00    80.00     -13.63    1.98    2.10    0.00000    80.59  LINEAR    1.34283E-01    88.64    8.10432E-01    88.64
 -150.00    80.00     -14.35    1.97    2.07    0.00000    81.32  LINEAR    1.23644E-01    88.64    8.09699E-01    88.64
 -140.00    80.00     -15.43    1.96    2.04    0.00000    82.31  LINEAR    1.09248E-01    88.64    8.08800E-01    88.64
 -130.00    80.00     -16.96    1.95    2.01    0.00000    83.53  LINEAR    9.15617E-02    88.64    8.07844E-01    88.64
 -120.00    80.00     -19.15    1.94    1.98    0.00000    84.96  LINEAR    7.11433E-02    88.64    8.06947E-01    88.64
 -110.00    80.00     -22.46    1.93    1.95    0.00000    86.55  LINEAR    4.86208E-02    88.64    8.06216E-01    88.64
 -100.00    80.00     -28.35    1.93    1.93    0.00000    88.25  LINEAR    2.46708E-02    88.64    8.05739E-01    88.64
  -90.00    80.00    -999.99    1.93    1.93    0.00000    90.00  LINEAR    7.24942E-13    88.64    8.05573E-01    88.64
  -80.00    80.00     -28.35    1.93    1.93    0.00000   -88.25  LINEAR    2.46708E-02   -91.36    8.05739E-01    88.64
  -70.00    80.00     -22.46    1.93    1.95    0.00000   -86.55  LINEAR    4.86208E-02   -91.36    8.06216E-01    88.64
  -60.00    80.00     -19.15    1.94    1.98    0.00000   -84.96  LINEAR    7.11433E-02   -91.36    8.06947E-01    88.64
  -50.00    80.00     -16.96    1.95    2.01    0.00000   -83.53  LINEAR    9.15617E-02   -91.36    8.07844E-01    88.64
  -40.00    80.00     -15.43    1.96    2.04    0.00000   -82.31  LINEAR    1.09248E-01   -91.36    8.08800E-01    88.64
  -30.00    80.00     -14.35    1.97    2.07    0.00000   -81.32  LINEAR    1.23644E-01   -91.36    8.09699E-01    88.64
  -20.00    80.00     -13.63    1.98    2.10    0.00000   -80.59  LINEAR    1.34283E-01   -91.36    8.10432E-01    88.64
  -10.00    80.00     -13.22    1.98    2.11    0.00000   -80.15  LINEAR    1.40813E-01   -91.36    8.10911E-01    88.64
    0.00    80.00     -13.09    1.99    2.12    0.00000   -80.00  LINEAR    1.43015E-01   -91.36    8.11078E-01    88.64
   10.00    80.00     -13.22    1.98    2.11    0.00000   -80.15  LINEAR    1.40813E-01   -91.36    8.10911E-01    88.64
   20.00    80.00     -13.63    1.98    2.10    0.00000   -80.59  LINEAR    1.34283E-01   -91.36    8.10432E-01    88.64
   30.00    80.00     -14.35    1.97    2.07    0.00000   -81.32  LINEAR    1.23644E-01   -91.35    8.09699E-01    88.65
   40.00    80.00     -15.43    1.96    2.04    0.00000   -82.31  LINEAR    1.09248E-01   -91.35    8.08800E-01    88.65
   50.00    80.00     -16.96    1.95    2.01    0.00000   -83.53  LINEAR    9.15617E-02   -91.35    8.07844E-01    88.65
   60.00    80.00     -19.15    1.94    1.98    0.00000   -84.96  LINEAR    7.11433E-02   -91.35    8.06947E-01    88.65
   70.00    80.00     -22.46    1.93    1.95    0.00000   -86.55  LINEAR    4.86208E-02   -91.35    8.06216E-01    88.65
   80.00    80.00     -28.35    1.93    1.93    0.00000   -88.25  LINEAR    2.46708E-02   -91.35    8.05739E-01    88.65
   90.00    80.00    -999.99    1.93    1.93    0.00000    90.00  LINEAR    7.24942E-13    88.65    8.05573E-01    88.65
  100.00    80.00     -28.35    1.93    1.93    0.00000    88.25  LINEAR    2.46708E-02    88.65    8.05739E-01    88.65
  110.00    80.00     -22.46    1.93    1.95    0.00000    86.55  LINEAR    4.86208E-02    88.65    8.06216E-01    88.65
  120.00    80.00     -19.15    1.94    1.98    0.00000    84.96  LINEAR    7.11433E-02    88.65    8.06947E-01    88.65
  130.00    80.00     -16.96    1.95    2.01    0.00000    83.53  LINEAR    9.15617E-02    88.65    8.07844E-01    88.65
  140.00    80.00     -15.43    1.96    2.04    0.00000    82.31  LINEAR    1.09248E-01    88.65    8.08800E-01    88.65
  150.00    80.00     -14.35    1.97    2.07    0.00000    81.32  LINEAR    1.23644E-01    88.65    8.09699E-01    88.65
  160.00    80.00     -13.63    1.98    2.10    0.00000    80.59  LINEAR    1.34283E-01    88.64    8.10432E-01    88.64
  170.00    80.00     -13.22    1.98    2.11    0.00000    80.15  LINEAR    1.40813E-01    88.64    8.10911E-01    88.64
 -180.00    90.00    -999.99    2.12    2.12    0.00000   -90.00  LINEAR    4.20330E-12   -91.36    8.23590E-01    88.64
 -170.00    90.00    -999.99    2.12    2.12    0.00000   -90.00  LINEAR    4.13944E-12   -91.36    8.23590E-01    88.64
 -160.00    90.00    -999.99    2.12    2.12    0.00000   -90.00  LINEAR    3.94981E-12   -91.36    8.23590E-01    88.64
 -150.00    90.00    -999.99    2.12    2.12    0.00000   -90.00  LINEAR    3.64017E-12   -91.36    8.23590E-01    88.64
 -140.00    90.00    -999.99    2.12    2.12    0.00000   -90.00  LINEAR    3.21992E-12   -91.36    8.23590E-01    88.64
 -130.00    90.00    -999.99    2.12    2.12    0.00000   -90.00  LINEAR    2.70183E-12   -91.36    8.23590E-01    88.64
 -120.00    90.00    -999.99    2.12    2.12    0.00000   -90.00  LINEAR    2.10165E-12   -91.36    8.23590E-01    88.64
 -110.00    90.00    -999.99    2.12    2.12    0.00000   -90.00  LINEAR    1.43761E-12   -91.36    8.23590E-01    88.64
 -100.00    90.00    -999.99    2.12    2.12    0.00000   -90.00  LINEAR    7.29896E-13   -91.36    8.23590E-01    88.64
  -90.00    90.00    -999.99    2.12    2.12    0.00000   -90.00  LINEAR    2.14521E-23   -91.36    8.23590E-01    88.64
  -80.00    90.00    -999.99    2.12    2.12    0.00000    90.00  LINEAR    7.29896E-13    88.64    8.23590E-01    88.64
  -70.00    90.00    -999.99    2.12    2.12    0.00000    90.00  LINEAR    1.43761E-12    88.64    8.23590E-01    88.64
  -60.00    90.00    -999.99    2.12    2.12    0.00000    90.00  LINEAR    2.10165E-12    88.64    8.23590E-01    88.64
  -50.00    90.00    -999.99    2.12    2.12    0.00000    90.00  LINEAR    2.70183E-12    88.64    8.23590E-01    88.64
  -40.00    90.00    -999.99    2.12    2.12    0.00000    90.00  LINEAR    3.21992E-12    88.64    8.23590E-01    88.64
  -30.00    90.00    -999.99    2.12    2.12    0.00000    90.00  LINEAR    3.64017E-12    88.64    8.23590E-01    88.64
  -20.00    90.00    -999.99    2.12    2.12    0.00000    90.00  LINEAR    3.94981E-12    88.64    8.23590E-01    88.64
  -10.00    90.00    -999.99    2.12    2.12    0.00000    90.00  LINEAR    4.13944E-12    88.64    8.23590E-01    88.64
    0.00    90.00    -999.99    2.12    2.12    0.00000    90.00  LINEAR    4.20330E-12    88.64    8.23590E-01    88.64
   10.00    90.00    -999.99    2.12    2.12    0.00000    90.00  LINEAR    4.13944E-12    88.64    8.23590E-01    88.64
   20.00    90.00    -999.99    2.12    2.12    0.00000    90.00  LINEAR    3.94981E-12    88.64    8.23590E-01    88.64
   30.00    90.00    -999.99    2.12    2.12    0.00000    90.00  LINEAR    3.64017E-12    88.64    8.23590E-01    88.64
   40.00    90.00    -999.99    2.12    2.12    0.00000    90.00  LINEAR    3.21992E-12    88.64    8.23590E-01    88.64
   50.00    90.00    -999.99    2.12    2.12    0.00000    90.00  LINEAR    2.70183E-12    88.64    8.23590E-01    88.64
   60.00    90.00    -999.99    2.12    2.12    0.00000    90.00  LINEAR    2.10165E-12    88.64    8.23590E-01    88.64
   70.00    90.00    -999.99    2.12    2.12    0.00000    90.00  LINEAR    1.43761E-12    88.64    8.23590E-01    88.64
   80.00    90.00    -999.99    2.12    2.12    0.00000    90.00  LINEAR    7.29896E-13    88.64    8.23590E-01    88.64
   90.00    90.00    -999.99    2.12    2.12    0.00000   -90.00  LINEAR    2.14521E-23   -91.36    8.23590E-01    88.64
  100.00    90.00    -999.99    2.12    2.12    0.00000   -90.00  LINEAR    7.29896E-13   -91.36    8.23590E-01    88.64
  110.00    90.00    -999.99    2.12    2.12    0.00000   -90.00  LINEAR    1.43761E-12   -91.36    8.23590E-01    88.64
  120.00    90.00    -999.99    2.12    2.12    0.00000   -90.00  LINEAR    2.10165E-12   -91.36    8.23590E-01    88.64
  130.00    90.00    -999.99    2.12    2.12    0.00000   -90.00  LINEAR    2.70183E-12   -91.36    8.23590E-01    88.64
  140.00    90.00    -999.99    2.12    2.12    0.00000   -90.00  LINEAR    3.21992E-12   -91.36    8.23590E-01    88.64
  150.00    90.00    -999.99    2.12    2.12    0.00000   -90.00  LINEAR    3.64017E-12   -91.36    8.23590E-01    88.64
  160.00    90.00    -999.99    2.12    2.12    0.00000   -90.00  LINEAR    3.94981E-12   -91.36    8.23590E-01    88.64
  170.00    90.00    -999.99    2.12    2.12    0.00000   -90.00  LINEAR    4.13944E-12   -91.36    8.23590E-01    88.64
 -180.00   100.00     -13.09    1.99    2.12    0.00000   -80.00  LINEAR    1.43015E-01   -91.36    8.11078E-01    88.64
 -170.00   100.00     -13.22    1.98    2.11    0.00000   -80.15  LINEAR    1.40813E-01   -91.36    8.10911E-01    88.64
 -160.00   100.00     -13.63    1.98    2.10    0.00000   -80.59  LINEAR    1.34283E-01   -91.36    8.10432E-01    88.64
 -150.00   100.00     -14.35    1.97    2.07    0.00000   -81.32  LINEAR    1.23644E-01   -91.35    8.09699E-01    88.65
 -140.00   100.00     -15.43    1.96    2.04    0.00000   -82.31  LINEAR    1.09248E-01   -91.35    8.08800E-01    88.65
 -130.00   100.00     -16.96    1.95    2.01    0.00000   -83.53  LINEAR    9.15617E-02   -91.35    8.07844E-01    88.65
 -120.00   100.00     -19.15    1.94    1.98    0.00000   -84.96  LINEAR    7.11433E-02   -91.35    8.06947E-01    88.65
 -110.00   100.00     -22.46    1.93    1.95    0.00000   -86.55  LINEAR    4.86208E-02   -91.35    8.06216E-01    88.65
 -100.00   100.00     -28.35    1.93    1.93    0.00000   -88.25  LINEAR    2.46708E-02   -91.35    8.05739E-01    88.65
  -90.00   100.00    -999.99    1.93    1.93    0.00000   -90.00  LINEAR    7.24942E-13   -91.35    8.05573E-01    88.65
  -80.00   100.00     -28.35    1.93    1.93    0.00000    88.25  LINEAR    2.46708E-02    88.65    8.05739E-01    88.65
  -70.00   100.00     -22.46    1.93    1.95    0.00000    86.55  LINEAR    4.86208E-02    88.65    8.06216E-01    88.65
  -60.00   100.00     -19.15    1.94    1.98    0.00000    84.96  LINEAR    7.11433E-02    88.65    8.06947E-01    88.65
  -50.00   100.00     -16.96    1.95    2.01    0.00000    83.53  LINEAR    9.15617E-02    88.65    8.07844E-01    88.65
  -40.00   100.00     -15.43    1.96    2.04    0.00000    82.31  LINEAR    1.09248E-01    88.65    8.08800E-01    88.65
  -30.00   100.00     -14.35    1.97    2.07    0.00000    81.32  LINEAR    1.23644E-01    88.65    8.09699E-01    88.65
  -20.00   100.00     -13.63    1.98    2.10    0.00000    80.59  LINEAR    1.34283E-01    88.64    8.10432E-01    88.64
  -10.00   100.00     -13.22    1.98    2.11    0.00000    80.15  LINEAR    1.40813E-01    88.64    8.10911E-01    88.64
    0.00   100.00     -13.09    1.99    2.12    0.00000    80.00  LINEAR    1.43015E-01    88.64    8.11078E-01    88.64
   10.00   100.00     -13.22    1.98    2.11    0.00000    80.15  LINEAR    1.40813E-01    88.64    8.10911E-01    88.64
   20.00   100.00     -13.63    1.98    2.10    0.00000    80.59  LINEAR    1.34283E-01    88.64    8.10432E-01    88.64
   30.00   100.00     -14.35    1.97    2.07    0.00000    81.32  LINEAR    1.23644E-01    88.64    8.09699E-01    88.64
   40.00   100.00     -15.43    1.96    2.04    0.00000    82.31  LINEAR    1.09248E-01    88.64    8.08800E-01    88.64
   50.00   100.00     -16.96    1.95    2.01    0.00000    83.53  LINEAR    9.15617E-02    88.64    8.07844E-01    88.64
   60.00   100.00     -19.15    1.94    1.98    0.00000    84.96  LINEAR    7.11433E-02    88.64    8.06947E-01    88.64
   70.00   100.00     -22.46    1.93    1.95    0.00000    86.55  LINEAR    4.86208E-02    88.64    8.06216E-01    88.64
   80.00   100.00     -28.35    1.93    1.93    0.00000    88.25  LINEAR    2.46708E-02    88.64    8.05739E-01    88.64
   90.00   100.00    -999.99    1.93    1.93    0.00000   -90.00  LINEAR    7.24942E-13   -91.36    8.05573E-01    88.64
  100.00   100.00     -28.35    1.93    1.93    0.00000   -88.25  LINEAR    2.46708E-02   -91.36    8.05739E-01    88.64
  110.00   100.00     -22.46    1.93    1.95    0.00000   -86.55  LINEAR    4.86208E-02   -91.36    8.06216E-01    88.64
  120.00   100.00     -19.15    1.94    1.98    0.00000   -84.96  LINEAR    7.11433E-02   -91.36    8.06947E-01    88.64
  130.00   100.00     -16.96    1.95    2.01    0.00000   -83.53  LINEAR    9.15617E-02   -91.36    8.07844E-01    88.64
  140.00   100.00     -15.43    1.96    2.04    0.00000   -82.31  LINEAR    1.09248E-01   -91.36    8.08800E-01    88.64
  150.00   100.00     -14.35    1.97    2.07    0.00000   -81.32  LINEAR    1.23644E-01   -91.36    8.09699E-01    88.64
  160.00   100.00     -13.63    1.98    2.10    0.00000   -80.59  LINEAR    1.34283E-01   -91.36    8.10432E-01    88.64
  170.00   100.00     -13.22    1.98    2.11    0.00000   -80.15  LINEAR    1.40813E-01   -91.36    8.10911E-01    88.64
 -180.00   110.00      -7.20    1.58    2.12    0.00000   -70.00  LINEAR    2.81684E-01   -91.36    7.73921E-01    88.64
 -170.00   110.00      -7.34    1.57    2.10    0.00000   -70.28  LINEAR    2.77184E-01   -91.36    7.73306E-01    88.64
 -160.00   110.00      -7.77    1.55    2.03    0.00000   -71.12  LINEAR    2.63880E-01   -91.35    7.71535E-01    88.65
 -150.00   110.00      -8.51    1.52    1.93    0.00000   -72.50  LINEAR    2.42340E-01   -91.35    7.68827E-01    88.65
 -140.00   110.00      -9.61    1.48    1.81    0.00000   -74.42  LINEAR    2.13439E-01   -91.34    7.65516E-01    88.66
 -130.00   110.00     -11.17    1.44    1.68    0.00000   -76.83  LINEAR    1.78275E-01   -91.33    7.62003E-01    88.67
 -120.00   110.00     -13.39    1.41    1.55    0.00000   -79.69  LINEAR    1.38074E-01   -91.33    7.58712E-01    88.67
 -110.00   110.00     -16.72    1.38    1.44    0.00000   -82.90  LINEAR    9.41154E-02   -91.32    7.56037E-01    88.68
 -100.00   110.00     -22.63    1.36    1.37    0.00000   -86.38  LINEAR    4.76735E-02   -91.32    7.54295E-01    88.68
  -90.00   110.00    -999.99    1.35    1.35    0.00000   -90.00  LINEAR    1.40003E-12   -91.32    7.53691E-01    88.68
  -80.00   110.00     -22.63    1.36    1.37    0.00000    86.38  LINEAR    4.76735E-02    88.68    7.54295E-01    88.68
  -70.00   110.00     -16.72    1.38    1.44    0.00000    82.90  LINEAR    9.41154E-02    88.68    7.56037E-01    88.68
  -60.00   110.00     -13.39    1.41    1.55    0.00000    79.69  LINEAR    1.38074E-01    88.67    7.58712E-01    88.67
  -50.00   110.00     -11.17    1.44    1.68    0.00000    76.83  LINEAR    1.78275E-01    88.67    7.62003E-01    88.67
  -40.00   110.00      -9.61    1.48    1.81    0.00000    74.42  LINEAR    2.13439E-01    88.66    7.65516E-01    88.66
  -30.00   110.00      -8.51    1.52    1.93    0.00000    72.50  LINEAR    2.42340E-01    88.65    7.68827E-01    88.65
  -20.00   110.00      -7.77    1.55    2.03    0.00000    71.12  LINEAR    2.63880E-01    88.65    7.71535E-01    88.65
  -10.00   110.00      -7.34    1.57    2.10    0.00000    70.28  LINEAR    2.77184E-01    88.64    7.73306E-01    88.64
    0.00   110.00      -7.20    1.58    2.12    0.00000    70.00  LINEAR    2.81684E-01    88.64    7.73921E-01    88.64
   10.00   110.00      -7.34    1.57    2.10    0.00000    70.28  LINEAR    2.77184E-01    88.64    7.73306E-01    88.64
   20.00   110.00      -7.77    1.55    2.03    0.00000    71.12  LINEAR    2.63880E-01    88.64    7.71535E-01    88.64
   30.00   110.00      -8.51    1.52    1.93    0.00000    72.50  LINEAR    2.42340E-01    88.64    7.68827E-01    88.64
   40.00   110.00      -9.61    1.48    1.81    0.00000    74.42  LINEAR    2.13439E-01    88.65    7.65516E-01    88.65
   50.00   110.00     -11.17    1.44    1.68    0.00000    76.83  LINEAR    1.78275E-01    88.65    7.62003E-01    88.65
   60.00   110.00     -13.39    1.41    1.55    0.00000    79.69  LINEAR    1.38074E-01    88.65    7.58712E-01    88.65
   70.00   110.00     -16.72    1.38    1.44    0.00000    82.90  LINEAR    9.41154E-02    88.66    7.56037E-01    88.66
   80.00   110.00     -22.63    1.36    1.37    0.00000    86.38  LINEAR    4.76735E-02    88.66    7.54295E-01    88.66
   90.00   110.00    -999.99    1.35    1.35    0.00000   -90.00  LINEAR    1.40003E-12   -91.34    7.53691E-01    88.66
  100.00   110.00     -22.63    1.36    1.37    0.00000   -86.38  LINEAR    4.76735E-02   -91.34    7.54295E-01    88.66
  110.00   110.00     -16.72    1.38    1.44    0.00000   -82.90  LINEAR    9.41154E-02   -91.34    7.56037E-01    88.66
  120.00   110.00     -13.39    1.41    1.55    0.00000   -79.69  LINEAR    1.38074E-01   -91.35    7.58712E-01    88.65
  130.00   110.00     -11.17    1.44    1.68    0.00000   -76.83  LINEAR    1.78275E-01   -91.35    7.62003E-01    88.65
  140.00   110.00      -9.61    1.48    1.81    0.00000   -74.42  LINEAR    2.13439E-01   -91.35    7.65516E-01    88.65
  150.00   110.00      -8.51    1.52    1.93    0.00000   -72.50  LINEAR    2.42340E-01   -91.36    7.68827E-01    88.64
  160.00   110.00      -7.77    1.55    2.03    0.00000   -71.12  LINEAR    2.63880E-01   -91.36    7.71535E-01    88.64
  170.00   110.00      -7.34    1.57    2.10    0.00000   -70.28  LINEAR    2.77184E-01   -91.36    7.73306E-01    88.64
 -180.00   120.00      -3.90    0.87    2.12    0.00000   -60.00  LINEAR    4.11795E-01   -91.36    7.13250E-01    88.64
 -170.00   120.00      -4.05    0.86    2.07    0.00000   -60.38  LINEAR    4.04850E-01   -91.35    7.12037E-01    88.65
 -160.00   120.00      -4.50    0.81    1.93    0.00000   -61.52  LINEAR    3.84414E-01   -91.35    7.08555E-01    88.65
 -150.00   120.00      -5.27    0.75    1.72    0.00000   -63.43  LINEAR    3.51622E-01   -91.33    7.03244E-01    88.67
 -140.00   120.00      -6.42    0.67    1.44    0.00000   -66.14  LINEAR    3.08164E-01   -91.32    6.96768E-01    88.68
 -130.00   120.00      -8.03    0.58    1.14    0.00000   -69.64  LINEAR    2.56040E-01   -91.31    6.89924E-01    88.69
 -120.00   120.00     -10.29    0.50    0.85    0.00000   -73.90  LINEAR    1.97320E-01   -91.29    6.83537E-01    88.71
 -110.00   120.00     -13.66    0.43    0.60    0.00000   -78.83  LINEAR    1.33953E-01   -91.28    6.78362E-01    88.72
 -100.00   120.00     -19.59    0.39    0.43    0.00000   -84.27  LINEAR    6.76726E-02   -91.28    6.74999E-01    88.72
  -90.00   120.00    -999.99    0.38    0.38    0.00000   -90.00  LINEAR    1.98551E-12   -91.27    6.73834E-01    88.73
  -80.00   120.00     -19.59    0.39    0.43    0.00000    84.27  LINEAR    6.76726E-02    88.72    6.74999E-01    88.72
  -70.00   120.00     -13.66    0.43    0.60    0.00000    78.83  LINEAR    1.33953E-01    88.72    6.78362E-01    88.72
  -60.00   120.00     -10.29    0.50    0.85    0.00000    73.90  LINEAR    1.97320E-01    88.71    6.83537E-01    88.71
  -50.00   120.00      -8.03    0.58    1.14    0.00000    69.64  LINEAR    2.56040E-01    88.69    6.89924E-01    88.69
  -40.00   120.00      -6.42    0.67    1.44    0.00000    66.14  LINEAR    3.08164E-01    88.68    6.96768E-01    88.68
  -30.00   120.00      -5.27    0.75    1.72    0.00000    63.43  LINEAR    3.51622E-01    88.67    7.03244E-01    88.67
  -20.00   120.00      -4.50    0.81    1.93    0.00000    61.52  LINEAR    3.84414E-01    88.65    7.08555E-01    88.65
  -10.00   120.00      -4.05    0.86    2.07    0.00000    60.38  LINEAR    4.04850E-01    88.65    7.12037E-01    88.65
    0.00   120.00      -3.90    0.87    2.12    0.00000    60.00  LINEAR    4.11795E-01    88.64    7.13250E-01    88.64
   10.00   120.00      -4.05    0.86    2.07    0.00000    60.38  LINEAR    4.04850E-01    88.64    7.12037E-01    88.64
   20.00   120.00      -4.50    0.81    1.93    0.00000    61.52  LINEAR    3.84414E-01    88.64    7.08555E-01    88.64
   30.00   120.00      -5.27    0.75    1.72    0.00000    63.43  LINEAR    3.51622E-01    88.65    7.03244E-01    88.65
   40.00   120.00      -6.42    0.67    1.44    0.00000    66.14  LINEAR    3.08164E-01    88.66    6.96768E-01    88.66
   50.00   120.00      -8.03    0.58    1.14    0.00000    69.64  LINEAR    2.56040E-01    88.67    6.89924E-01    88.67
   60.00   120.00     -10.29    0.50    0.85    0.00000    73.90  LINEAR    1.97320E-01    88.67    6.83537E-01    88.67
   70.00   120.00     -13.66    0.43    0.60    0.00000    78.83  LINEAR    1.33953E-01    88.68    6.78362E-01    88.68
   80.00   120.00     -19.59    0.39    0.43    0.00000    84.27  LINEAR    6.76726E-02    88.69    6.74999E-01    88.69
   90.00   120.00    -999.99    0.38    0.38    0.00000   -90.00  LINEAR    1.98551E-12   -91.31    6.73834E-01    88.69
  100.00   120.00     -19.59    0.39    0.43    0.00000   -84.27  LINEAR    6.76726E-02   -91.31    6.74999E-01    88.69
  110.00   120.00     -13.66    0.43    0.60    0.00000   -78.83  LINEAR    1.33953E-01   -91.32    6.78362E-01    88.68
  120.00   120.00     -10.29    0.50    0.85    0.00000   -73.90  LINEAR    1.97320E-01   -91.33    6.83537E-01    88.67
  130.00   120.00      -8.03    0.58    1.14    0.00000   -69.64  LINEAR    2.56040E-01   -91.33    6.89924E-01    88.67
  140.00   120.00      -6.42    0.67    1.44    0.00000   -66.14  LINEAR    3.08164E-01   -91.34    6.96768E-01    88.66
  150.00   120.00      -5.27    0.75    1.72    0.00000   -63.43  LINEAR    3.51622E-01   -91.35    7.03244E-01    88.65
  160.00   120.00      -4.50    0.81    1.93    0.00000   -61.52  LINEAR    3.84414E-01   -91.36    7.08555E-01    88.64
  170.00   120.00      -4.05    0.86    2.07    0.00000   -60.38  LINEAR    4.04850E-01   -91.36    7.12037E-01    88.64
 -180.00   130.00      -1.72   -0.20    2.12    0.00000   -50.00  LINEAR    5.29393E-01   -91.36    6.30906E-01    88.64
 -170.00   130.00      -1.88   -0.22    2.04    0.00000   -50.43  LINEAR    5.19887E-01   -91.35    6.29135E-01    88.65
 -160.00   130.00      -2.35   -0.29    1.81    0.00000   -51.74  LINEAR    4.92064E-01   -91.34    6.24054E-01    88.66
 -150.00   130.00      -3.17   -0.40    1.44    0.00000   -53.99  LINEAR    4.47874E-01   -91.32    6.16327E-01    88.68
 -140.00   130.00      -4.37   -0.53    0.97    0.00000   -57.27  LINEAR    3.90136E-01   -91.30    6.06944E-01    88.70
 -130.00   130.00      -6.04   -0.67    0.43    0.00000   -61.66  LINEAR    3.22038E-01   -91.28    5.97072E-01    88.72
 -120.00   130.00      -8.35   -0.81   -0.10    0.00000   -67.24  LINEAR    2.46654E-01   -91.26    5.87901E-01    88.74
 -110.00   130.00     -11.76   -0.92   -0.58    0.00000   -73.99  LINEAR    1.66597E-01   -91.24    5.80499E-01    88.76
 -100.00   130.00     -17.72   -0.99   -0.90    0.00000   -81.71  LINEAR    8.38849E-02   -91.23    5.75705E-01    88.77
  -90.00   130.00    -999.99   -1.02   -1.02    0.00000   -90.00  LINEAR    2.45833E-12   -91.22    5.74046E-01    88.78
  -80.00   130.00     -17.72   -0.99   -0.90    0.00000    81.71  LINEAR    8.38849E-02    88.77    5.75705E-01    88.77
  -70.00   130.00     -11.76   -0.92   -0.58    0.00000    73.99  LINEAR    1.66597E-01    88.76    5.80499E-01    88.76
  -60.00   130.00      -8.35   -0.81   -0.10    0.00000    67.24  LINEAR    2.46654E-01    88.74    5.87901E-01    88.74
  -50.00   130.00      -6.04   -0.67    0.43    0.00000    61.66  LINEAR    3.22038E-01    88.72    5.97072E-01    88.72
  -40.00   130.00      -4.37   -0.53    0.97    0.00000    57.27  LINEAR    3.90136E-01    88.70    6.06944E-01    88.70
  -30.00   130.00      -3.17   -0.40    1.44    0.00000    53.99  LINEAR    4.47874E-01    88.68    6.16327E-01    88.68
  -20.00   130.00      -2.35   -0.29    1.81    0.00000    51.74  LINEAR    4.92064E-01    88.66    6.24054E-01    88.66
  -10.00   130.00      -1.88   -0.22    2.04    0.00000    50.43  LINEAR    5.19887E-01    88.65    6.29135E-01    88.65
    0.00   130.00      -1.72   -0.20    2.12    0.00000    50.00  LINEAR    5.29393E-01    88.64    6.30906E-01    88.64
   10.00   130.00      -1.88   -0.22    2.04    0.00000    50.43  LINEAR    5.19887E-01    88.64    6.29135E-01    88.64
   20.00   130.00      -2.35   -0.29    1.81    0.00000    51.74  LINEAR    4.92064E-01    88.65    6.24054E-01    88.65
   30.00   130.00      -3.17   -0.40    1.44    0.00000    53.99  LINEAR    4.47874E-01    88.66    6.16327E-01    88.66
   40.00   130.00      -4.37   -0.53    0.97    0.00000    57.27  LINEAR    3.90136E-01    88.67    6.06944E-01    88.67
   50.00   130.00      -6.04   -0.67    0.43    0.00000    61.66  LINEAR    3.22038E-01    88.69    5.97072E-01    88.69
   60.00   130.00      -8.35   -0.81   -0.10    0.00000    67.24  LINEAR    2.46654E-01    88.70    5.87901E-01    88.70
   70.00   130.00     -11.76   -0.92   -0.58    0.00000    73.99  LINEAR    1.66597E-01    88.72    5.80499E-01    88.72
   80.00   130.00     -17.72   -0.99   -0.90    0.00000    81.71  LINEAR    8.38849E-02    88.73    5.75705E-01    88.73
   90.00   130.00    -999.99   -1.02   -1.02    0.00000   -90.00  LINEAR    2.45833E-12   -91.27    5.74046E-01    88.73
  100.00   130.00     -17.72   -0.99   -0.90    0.00000   -81.71  LINEAR    8.38849E-02   -91.27    5.75705E-01    88.73
  110.00   130.00     -11.76   -0.92   -0.58    0.00000   -73.99  LINEAR    1.66597E-01   -91.28    5.80499E-01    88.72
  120.00   130.00      -8.35   -0.81   -0.10    0.00000   -67.24  LINEAR    2.46654E-01   -91.30    5.87901E-01    88.70
  130.00   130.00      -6.04   -0.67    0.43    0.00000   -61.66  LINEAR    3.22038E-01   -91.31    5.97072E-01    88.69
  140.00   130.00      -4.37   -0.53    0.97    0.00000   -57.27  LINEAR    3.90136E-01   -91.33    6.06944E-01    88.67
  150.00   130.00      -3.17   -0.40    1.44    0.00000   -53.99  LINEAR    4.47874E-01   -91.34    6.16327E-01    88.66
  160.00   130.00      -2.35   -0.29    1.81    0.00000   -51.74  LINEAR    4.92064E-01   -91.35    6.24054E-01    88.65
  170.00   130.00      -1.88   -0.22    2.04    0.00000   -50.43  LINEAR    5.19887E-01   -91.36    6.29135E-01    88.64
 -180.00   140.00      -0.20   -1.72    2.12    0.00000   -40.00  LINEAR    6.30906E-01   -91.36    5.29393E-01    88.64
 -170.00   140.00      -0.36   -1.75    2.01    0.00000   -40.43  LINEAR    6.18845E-01   -91.35    5.27283E-01    88.65
 -160.00   140.00      -0.87   -1.85    1.68    0.00000   -41.76  LINEAR    5.83728E-01   -91.33    5.21240E-01    88.67
 -150.00   140.00      -1.73   -2.01    1.14    0.00000   -44.10  LINEAR    5.28512E-01   -91.31    5.12080E-01    88.69
 -140.00   140.00      -2.99   -2.20    0.43    0.00000   -47.61  LINEAR    4.57383E-01   -91.28    5.01003E-01    88.72
 -130.00   140.00      -4.72   -2.40   -0.40    0.00000   -52.55  LINEAR    3.74906E-01   -91.24    4.89404E-01    88.76
 -120.00   140.00      -7.09   -2.59   -1.27    0.00000   -59.21  LINEAR    2.85236E-01   -91.21    4.78683E-01    88.79
 -110.00   140.00     -10.55   -2.75   -2.08    0.00000   -67.82  LINEAR    1.91601E-01   -91.19    4.70067E-01    88.81
 -100.00   140.00     -16.54   -2.86   -2.67    0.00000   -78.31  LINEAR    9.61272E-02   -91.17    4.64504E-01    88.83
  -90.00   140.00    -999.99   -2.89   -2.89    0.00000   -90.00  LINEAR    2.81356E-12   -91.17    4.62583E-01    88.83
  -80.00   140.00     -16.54   -2.86   -2.67    0.00000    78.31  LINEAR    9.61272E-02    88.83    4.64504E-01    88.83
  -70.00   140.00     -10.55   -2.75   -2.08    0.00000    67.82  LINEAR    1.91601E-01    88.81    4.70067E-01    88.81
  -60.00   140.00      -7.09   -2.59   -1.27    0.00000    59.21  LINEAR    2.85236E-01    88.79    4.78683E-01    88.79
  -50.00   140.00      -4.72   -2.40   -0.40    0.00000    52.55  LINEAR    3.74906E-01    88.76    4.89404E-01    88.76
  -40.00   140.00      -2.99   -2.20    0.43    0.00000    47.61  LINEAR    4.57383E-01    88.72    5.01003E-01    88.72
  -30.00   140.00      -1.73   -2.01    1.14    0.00000    44.10  LINEAR    5.28512E-01    88.69    5.12080E-01    88.69
  -20.00   140.00      -0.87   -1.85    1.68    0.00000    41.76  LINEAR    5.83728E-01    88.67    5.21240E-01    88.67
  -10.00   140.00      -0.36   -1.75    2.01    0.00000    40.43  LINEAR    6.18845E-01    88.65    5.27283E-01    88.65
    0.00   140.00      -0.20   -1.72    2.12    0.00000    40.00  LINEAR    6.30906E-01    88.64    5.29393E-01    88.64
   10.00   140.00      -0.36   -1.75    2.01    0.00000    40.43  LINEAR    6.18845E-01    88.64    5.27283E-01    88.64
   20.00   140.00      -0.87   -1.85    1.68    0.00000    41.76  LINEAR    5.83728E-01    88.65    5.21240E-01    88.65
   30.00   140.00      -1.73   -2.01    1.14    0.00000    44.10  LINEAR    5.28512E-01    88.67    5.12080E-01    88.67
   40.00   140.00      -2.99   -2.20    0.43    0.00000    47.61  LINEAR    4.57383E-01    88.69    5.01003E-01    88.69
   50.00   140.00      -4.72   -2.40   -0.40    0.00000    52.55  LINEAR    3.74906E-01    88.71    4.89404E-01    88.71
   60.00   140.00      -7.09   -2.59   -1.27    0.00000    59.21  LINEAR    2.85236E-01    88.74    4.78683E-01    88.74
   70.00   140.00     -10.55   -2.75   -2.08    0.00000    67.82  LINEAR    1.91601E-01    88.76    4.70067E-01    88.76
   80.00   140.00     -16.54   -2.86   -2.67    0.00000    78.31  LINEAR    9.61272E-02    88.77    4.64504E-01    88.77
   90.00   140.00    -999.99   -2.89   -2.89    0.00000   -90.00  LINEAR    2.81356E-12   -91.22    4.62583E-01    88.78
  100.00   140.00     -16.54   -2.86   -2.67    0.00000   -78.31  LINEAR    9.61272E-02   -91.23    4.64504E-01    88.77
  110.00   140.00     -10.55   -2.75   -2.08    0.00000   -67.82  LINEAR    1.91601E-01   -91.24    4.70067E-01    88.76
  120.00   140.00      -7.09   -2.59   -1.27    0.00000   -59.21  LINEAR    2.85236E-01   -91.26    4.78683E-01    88.74
  130.00   140.00      -4.72   -2.40   -0.40    0.00000   -52.55  LINEAR    3.74906E-01   -91.29    4.89404E-01    88.71
  140.00   140.00      -2.99   -2.20    0.43    0.00000   -47.61  LINEAR    4.57383E-01   -91.31    5.01003E-01    88.69
  150.00   140.00      -1.73   -2.01    1.14    0.00000   -44.10  LINEAR    5.28512E-01   -91.33    5.12080E-01    88.67
  160.00   140.00      -0.87   -1.85    1.68    0.00000   -41.76  LINEAR    5.83728E-01   -91.35    5.21240E-01    88.65
  170.00   140.00      -0.36   -1.75    2.01    0.00000   -40.43  LINEAR    6.18845E-01   -91.36    5.27283E-01    88.64
 -180.00   150.00       0.87   -3.90    2.12    0.00000   -30.00  LINEAR    7.13250E-01   -91.36    4.11795E-01    88.64
 -170.00   150.00       0.69   -3.95    1.98    0.00000   -30.38  LINEAR    6.98837E-01   -91.35    4.09698E-01    88.65
 -160.00   150.00       0.16   -4.07    1.55    0.00000   -31.57  LINEAR    6.57064E-01   -91.33    4.03702E-01    88.67
 -150.00   150.00      -0.75   -4.27    0.85    0.00000   -33.69  LINEAR    5.91960E-01   -91.29    3.94640E-01    88.71
 -140.00   150.00      -2.06   -4.51   -0.10    0.00000   -37.00  LINEAR    5.09137E-01   -91.26    3.83725E-01    88.74
 -130.00   150.00      -3.84   -4.78   -1.27    0.00000   -41.93  LINEAR    4.14551E-01   -91.21    3.72349E-01    88.79
 -120.00   150.00      -6.27   -5.02   -2.59    0.00000   -49.11  LINEAR    3.13398E-01   -91.18    3.61881E-01    88.82
 -110.00   150.00      -9.77   -5.23   -3.92    0.00000   -59.36  LINEAR    2.09414E-01   -91.14    3.53504E-01    88.86
 -100.00   150.00     -15.80   -5.36   -4.98    0.00000   -73.26  LINEAR    1.04701E-01   -91.12    3.48111E-01    88.88
  -90.00   150.00    -999.99   -5.41   -5.41    0.00000   -90.00  LINEAR    3.06078E-12   -91.11    3.46252E-01    88.89
  -80.00   150.00     -15.80   -5.36   -4.98    0.00000    73.26  LINEAR    1.04701E-01    88.88    3.48111E-01    88.88
  -70.00   150.00      -9.77   -5.23   -3.92    0.00000    59.36  LINEAR    2.09414E-01    88.86    3.53504E-01    88.86
  -60.00   150.00      -6.27   -5.02   -2.59    0.00000    49.11  LINEAR    3.13398E-01    88.82    3.61881E-01    88.82
  -50.00   150.00      -3.84   -4.78   -1.27    0.00000    41.93  LINEAR    4.14551E-01    88.79    3.72349E-01    88.79
  -40.00   150.00      -2.06   -4.51   -0.10    0.00000    37.00  LINEAR    5.09137E-01    88.74    3.83725E-01    88.74
  -30.00   150.00      -0.75   -4.27    0.85    0.00000    33.69  LINEAR    5.91960E-01    88.71    3.94640E-01    88.71
  -20.00   150.00       0.16   -4.07    1.55    0.00000    31.57  LINEAR    6.57064E-01    88.67    4.03702E-01    88.67
  -10.00   150.00       0.69   -3.95    1.98    0.00000    30.38  LINEAR    6.98837E-01    88.65    4.09698E-01    88.65
    0.00   150.00       0.87   -3.90    2.12    0.00000    30.00  LINEAR    7.13250E-01    88.64    4.11795E-01    88.64
   10.00   150.00       0.69   -3.95    1.98    0.00000    30.38  LINEAR    6.98837E-01    88.64    4.09698E-01    88.64
   20.00   150.00       0.16   -4.07    1.55    0.00000    31.57  LINEAR    6.57064E-01    88.65    4.03702E-01    88.65
   30.00   150.00      -0.75   -4.27    0.85    0.00000    33.69  LINEAR    5.91960E-01    88.67    3.94640E-01    88.67
   40.00   150.00      -2.06   -4.51   -0.10    0.00000    37.00  LINEAR    5.09137E-01    88.70    3.83725E-01    88.70
   50.00   150.00      -3.84   -4.78   -1.27    0.00000    41.93  LINEAR    4.14551E-01    88.74    3.72349E-01    88.74
   60.00   150.00      -6.27   -5.02   -2.59    0.00000    49.11  LINEAR    3.13398E-01    88.77    3.61881E-01    88.77
   70.00   150.00      -9.77   -5.23   -3.92    0.00000    59.36  LINEAR    2.09414E-01    88.80    3.53504E-01    88.80
   80.00   150.00     -15.80   -5.36   -4.98    0.00000    73.26  LINEAR    1.04701E-01    88.82    3.48111E-01    88.82
   90.00   150.00    -999.99   -5.41   -5.41    0.00000   -90.00  LINEAR    3.06078E-12   -91.18    3.46252E-01    88.82
  100.00   150.00     -15.80   -5.36   -4.98    0.00000   -73.26  LINEAR    1.04701E-01   -91.18    3.48111E-01    88.82
  110.00   150.00      -9.77   -5.23   -3.92    0.00000   -59.36  LINEAR    2.09414E-01   -91.20    3.53504E-01    88.80
  120.00   150.00      -6.27   -5.02   -2.59    0.00000   -49.11  LINEAR    3.13398E-01   -91.23    3.61881E-01    88.77
  130.00   150.00      -3.84   -4.78   -1.27    0.00000   -41.93  LINEAR    4.14551E-01   -91.26    3.72349E-01    88.74
  140.00   150.00      -2.06   -4.51   -0.10    0.00000   -37.00  LINEAR    5.09137E-01   -91.30    3.83725E-01    88.70
  150.00   150.00      -0.75   -4.27    0.85    0.00000   -33.69  LINEAR    5.91960E-01   -91.33    3.94640E-01    88.67
  160.00   150.00       0.16   -4.07    1.55    0.00000   -31.57  LINEAR    6.57064E-01   -91.35    4.03702E-01    88.65
  170.00   150.00       0.69   -3.95    1.98    0.00000   -30.38  LINEAR    6.98837E-01   -91.36    4.09698E-01    88.64
 -180.00   160.00       1.58   -7.20    2.12    0.00000   -20.00  LINEAR    7.73921E-01   -91.36    2.81684E-01    88.64
 -170.00   160.00       1.39   -7.25    1.95    0.00000   -20.28  LINEAR    7.57595E-01   -91.35    2.79996E-01    88.65
 -160.00   160.00       0.84   -7.40    1.44    0.00000   -21.17  LINEAR    7.10443E-01   -91.32    2.75175E-01    88.68
 -150.00   160.00      -0.11   -7.64    0.60    0.00000   -22.80  LINEAR    6.37451E-01   -91.28    2.67906E-01    88.72
 -140.00   160.00      -1.46   -7.92   -0.58    0.00000   -25.41  LINEAR    5.45491E-01   -91.24    2.59179E-01    88.76
 -130.00   160.00      -3.29   -8.23   -2.08    0.00000   -29.52  LINEAR    4.41719E-01   -91.19    2.50118E-01    88.81
 -120.00   160.00      -5.77   -8.53   -3.92    0.00000   -36.05  LINEAR    3.32185E-01   -91.14    2.41811E-01    88.86
 -110.00   160.00      -9.31   -8.77   -6.02    0.00000   -46.78  LINEAR    2.21002E-01   -91.10    2.35186E-01    88.90
 -100.00   160.00     -15.35   -8.93   -8.03    0.00000   -64.49  LINEAR    1.10176E-01   -91.08    2.30932E-01    88.92
  -90.00   160.00    -999.99   -8.98   -8.98    0.00000   -90.00  LINEAR    3.21762E-12   -91.07    2.29467E-01    88.93
  -80.00   160.00     -15.35   -8.93   -8.03    0.00000    64.49  LINEAR    1.10176E-01    88.92    2.30932E-01    88.92
  -70.00   160.00      -9.31   -8.77   -6.02    0.00000    46.78  LINEAR    2.21002E-01    88.90    2.35186E-01    88.90
  -60.00   160.00      -5.77   -8.53   -3.92    0.00000    36.05  LINEAR    3.32185E-01    88.86    2.41811E-01    88.86
  -50.00   160.00      -3.29   -8.23   -2.08    0.00000    29.52  LINEAR    4.41719E-01    88.81    2.50118E-01    88.81
  -40.00   160.00      -1.46   -7.92   -0.58    0.00000    25.41  LINEAR    5.45491E-01    88.76    2.59179E-01    88.76
  -30.00   160.00      -0.11   -7.64    0.60    0.00000    22.80  LINEAR    6.37451E-01    88.72    2.67906E-01    88.72
  -20.00   160.00       0.84   -7.40    1.44    0.00000    21.17  LINEAR    7.10443E-01    88.68    2.75175E-01    88.68
  -10.00   160.00       1.39   -7.25    1.95    0.00000    20.28  LINEAR    7.57595E-01    88.65    2.79996E-01    88.65
    0.00   160.00       1.58   -7.20    2.12    0.00000    20.00  LINEAR    7.73921E-01    88.64    2.81684E-01    88.64
   10.00   160.00       1.39   -7.25    1.95    0.00000    20.28  LINEAR    7.57595E-01    88.64    2.79996E-01    88.64
   20.00   160.00       0.84   -7.40    1.44    0.00000    21.17  LINEAR    7.10443E-01    88.66    2.75175E-01    88.66
   30.00   160.00      -0.11   -7.64    0.60    0.00000    22.80  LINEAR    6.37451E-01    88.68    2.67906E-01    88.68
   40.00   160.00      -1.46   -7.92   -0.58    0.00000    25.41  LINEAR    5.45491E-01    88.72    2.59179E-01    88.72
   50.00   160.00      -3.29   -8.23   -2.08    0.00000    29.52  LINEAR    4.41719E-01    88.76    2.50118E-01    88.76
   60.00   160.00      -5.77   -8.53   -3.92    0.00000    36.05  LINEAR    3.32185E-01    88.80    2.41811E-01    88.80
   70.00   160.00      -9.31   -8.77   -6.02    0.00000    46.78  LINEAR    2.21002E-01    88.83    2.35186E-01    88.83
   80.00   160.00     -15.35   -8.93   -8.03    0.00000    64.49  LINEAR    1.10176E-01    88.85    2.30932E-01    88.85
   90.00   160.00    -999.99   -8.98   -8.98    0.00000   -90.00  LINEAR    3.21762E-12   -91.14    2.29467E-01    88.86
  100.00   160.00     -15.35   -8.93   -8.03    0.00000   -64.49  LINEAR    1.10176E-01   -91.15    2.30932E-01    88.85
  110.00   160.00      -9.31   -8.77   -6.02    0.00000   -46.78  LINEAR    2.21002E-01   -91.17    2.35186E-01    88.83
[...]
    0.00   310.00      -1.72   -0.20    2.12    0.00000    50.00  LINEAR    5.29393E-01   -91.36    6.30906E-01   -91.36
   10.00   310.00      -1.88   -0.22    2.04    0.00000    50.43  LINEAR    5.19887E-01   -91.35    6.29135E-01   -91.35
   20.00   310.00      -2.35   -0.29    1.81    0.00000    51.74  LINEAR    4.92064E-01   -91.34    6.24054E-01   -91.34
   30.00   310.00      -3.17   -0.40    1.44    0.00000    53.99  LINEAR    4.47874E-01   -91.32    6.16327E-01   -91.32
   40.00   310.00      -4.37   -0.53    0.97    0.00000    57.27  LINEAR    3.90136E-01   -91.30    6.06944E-01   -91.30
   50.00   310.00      -6.04   -0.67    0.43    0.00000    61.66  LINEAR    3.22038E-01   -91.28    5.97072E-01   -91.28
   60.00   310.00      -8.35   -0.81   -0.10    0.00000    67.24  LINEAR    2.46654E-01   -91.26    5.87901E-01   -91.26
   70.00   310.00     -11.76   -0.92   -0.58    0.00000    73.99  LINEAR    1.66597E-01   -91.24    5.80499E-01   -91.24
   80.00   310.00     -17.72   -0.99   -0.90    0.00000    81.71  LINEAR    8.38849E-02   -91.23    5.75705E-01   -91.23
   90.00   310.00    -999.99   -1.02   -1.02    0.00000   -90.00  LINEAR    2.45833E-12    88.78    5.74046E-01   -91.22
  100.00   310.00     -17.72   -0.99   -0.90    0.00000   -81.71  LINEAR    8.38849E-02    88.77    5.75705E-01   -91.23
  110.00   310.00     -11.76   -0.92   -0.58    0.00000   -73.99  LINEAR    1.66597E-01    88.76    5.80499E-01   -91.24
  120.00   310.00      -8.35   -0.81   -0.10    0.00000   -67.24  LINEAR    2.46654E-01    88.74    5.87901E-01   -91.26
  130.00   310.00      -6.04   -0.67    0.43    0.00000   -61.66  LINEAR    3.22038E-01    88.72    5.97072E-01   -91.28
  140.00   310.00      -4.37   -0.53    0.97    0.00000   -57.27  LINEAR    3.90136E-01    88.70    6.06944E-01   -91.30
  150.00   310.00      -3.17   -0.40    1.44    0.00000   -53.99  LINEAR    4.47874E-01    88.68    6.16327E-01   -91.32
  160.00   310.00      -2.35   -0.29    1.81    0.00000   -51.74  LINEAR    4.92064E-01    88.66    6.24054E-01   -91.34
  170.00   310.00      -1.88   -0.22    2.04    0.00000   -50.43  LINEAR    5.19887E-01    88.65    6.29135E-01   -91.35
 -180.00   320.00      -0.20   -1.72    2.12    0.00000   -40.00  LINEAR    6.30906E-01    88.64    5.29393E-01   -91.36
 -170.00   320.00      -0.36   -1.75    2.01    0.00000   -40.43  LINEAR    6.18845E-01    88.64    5.27283E-01   -91.36
 -160.00   320.00      -0.87   -1.85    1.68    0.00000   -41.76  LINEAR    5.83728E-01    88.65    5.21240E-01   -91.35
 -150.00   320.00      -1.73   -2.01    1.14    0.00000   -44.10  LINEAR    5.28512E-01    88.67    5.12080E-01   -91.33
 -140.00   320.00      -2.99   -2.20    0.43    0.00000   -47.61  LINEAR    4.57383E-01    88.69    5.01003E-01   -91.31
 -130.00   320.00      -4.72   -2.40   -0.40    0.00000   -52.55  LINEAR    3.74906E-01    88.71    4.89404E-01   -91.29
 -120.00   320.00      -7.09   -2.59   -1.27    0.00000   -59.21  LINEAR    2.85236E-01    88.74    4.78683E-01   -91.26
 -110.00   320.00     -10.55   -2.75   -2.08    0.00000   -67.82  LINEAR    1.91601E-01    88.76    4.70067E-01   -91.24
 -100.00   320.00     -16.54   -2.86   -2.67    0.00000   -78.31  LINEAR    9.61272E-02    88.77    4.64504E-01   -91.23
  -90.00   320.00    -999.99   -2.89   -2.89    0.00000   -90.00  LINEAR    2.81356E-12    88.78    4.62583E-01   -91.22
  -80.00   320.00     -16.54   -2.86   -2.67    0.00000    78.31  LINEAR    9.61272E-02   -91.23    4.64504E-01   -91.23
  -70.00   320.00     -10.55   -2.75   -2.08    0.00000    67.82  LINEAR    1.91601E-01   -91.24    4.70067E-01   -91.24
  -60.00   320.00      -7.09   -2.59   -1.27    0.00000    59.21  LINEAR    2.85236E-01   -91.26    4.78683E-01   -91.26
  -50.00   320.00      -4.72   -2.40   -0.40    0.00000    52.55  LINEAR    3.74906E-01   -91.29    4.89404E-01   -91.29
  -40.00   320.00      -2.99   -2.20    0.43    0.00000    47.61  LINEAR    4.57383E-01   -91.31    5.01003E-01   -91.31
  -30.00   320.00      -1.73   -2.01    1.14    0.00000    44.10  LINEAR    5.28512E-01   -91.33    5.12080E-01   -91.33
  -20.00   320.00      -0.87   -1.85    1.68    0.00000    41.76  LINEAR    5.83728E-01   -91.35    5.21240E-01   -91.35
  -10.00   320.00      -0.36   -1.75    2.01    0.00000    40.43  LINEAR    6.18845E-01   -91.36    5.27283E-01   -91.36
    0.00   320.00      -0.20   -1.72    2.12    0.00000    40.00  LINEAR    6.30906E-01   -91.36    5.29393E-01   -91.36
   10.00   320.00      -0.36   -1.75    2.01    0.00000    40.43  LINEAR    6.18845E-01   -91.35    5.27283E-01   -91.35
   20.00   320.00      -0.87   -1.85    1.68    0.00000    41.76  LINEAR    5.83728E-01   -91.33    5.21240E-01   -91.33
   30.00   320.00      -1.73   -2.01    1.14    0.00000    44.10  LINEAR    5.28512E-01   -91.31    5.12080E-01   -91.31
   40.00   320.00      -2.99   -2.20    0.43    0.00000    47.61  LINEAR    4.57383E-01   -91.28    5.01003E-01   -91.28
   50.00   320.00      -4.72   -2.40   -0.40    0.00000    52.55  LINEAR    3.74906E-01   -91.24    4.89404E-01   -91.24
   60.00   320.00      -7.09   -2.59   -1.27    0.00000    59.21  LINEAR    2.85236E-01   -91.21    4.78683E-01   -91.21
   70.00   320.00     -10.55   -2.75   -2.08    0.00000    67.82  LINEAR    1.91601E-01   -91.19    4.70067E-01   -91.19
   80.00   320.00     -16.54   -2.86   -2.67    0.00000    78.31  LINEAR    9.61272E-02   -91.17    4.64504E-01   -91.17
   90.00   320.00    -999.99   -2.89   -2.89    0.00000   -90.00  LINEAR    2.81356E-12    88.83    4.62583E-01   -91.17
  100.00   320.00     -16.54   -2.86   -2.67    0.00000   -78.31  LINEAR    9.61272E-02    88.83    4.64504E-01   -91.17
  110.00   320.00     -10.55   -2.75   -2.08    0.00000   -67.82  LINEAR    1.91601E-01    88.81    4.70067E-01   -91.19
  120.00   320.00      -7.09   -2.59   -1.27    0.00000   -59.21  LINEAR    2.85236E-01    88.79    4.78683E-01   -91.21
  130.00   320.00      -4.72   -2.40   -0.40    0.00000   -52.55  LINEAR    3.74906E-01    88.76    4.89404E-01   -91.24
  140.00   320.00      -2.99   -2.20    0.43    0.00000   -47.61  LINEAR    4.57383E-01    88.72    5.01003E-01   -91.28
  150.00   320.00      -1.73   -2.01    1.14    0.00000   -44.10  LINEAR    5.28512E-01    88.69    5.12080E-01   -91.31
  160.00   320.00      -0.87   -1.85    1.68    0.00000   -41.76  LINEAR    5.83728E-01    88.67    5.21240E-01   -91.33
  170.00   320.00      -0.36   -1.75    2.01    0.00000   -40.43  LINEAR    6.18845E-01    88.65    5.27283E-01   -91.35
 -180.00   330.00       0.87   -3.90    2.12    0.00000   -30.00  LINEAR    7.13250E-01    88.64    4.11795E-01   -91.36
 -170.00   330.00       0.69   -3.95    1.98    0.00000   -30.38  LINEAR    6.98837E-01    88.64    4.09698E-01   -91.36
 -160.00   330.00       0.16   -4.07    1.55    0.00000   -31.57  LINEAR    6.57064E-01    88.65    4.03702E-01   -91.35
 -150.00   330.00      -0.75   -4.27    0.85    0.00000   -33.69  LINEAR    5.91960E-01    88.67    3.94640E-01   -91.33
 -140.00   330.00      -2.06   -4.51   -0.10    0.00000   -37.00  LINEAR    5.09137E-01    88.70    3.83725E-01   -91.30
 -130.00   330.00      -3.84   -4.78   -1.27    0.00000   -41.93  LINEAR    4.14551E-01    88.74    3.72349E-01   -91.26
 -120.00   330.00      -6.27   -5.02   -2.59    0.00000   -49.11  LINEAR    3.13398E-01    88.77    3.61881E-01   -91.23
 -110.00   330.00      -9.77   -5.23   -3.92    0.00000   -59.36  LINEAR    2.09414E-01    88.80    3.53504E-01   -91.20
 -100.00   330.00     -15.80   -5.36   -4.98    0.00000   -73.26  LINEAR    1.04701E-01    88.82    3.48111E-01   -91.18
  -90.00   330.00    -999.99   -5.41   -5.41    0.00000   -90.00  LINEAR    3.06078E-12    88.82    3.46252E-01   -91.18
  -80.00   330.00     -15.80   -5.36   -4.98    0.00000    73.26  LINEAR    1.04701E-01   -91.18    3.48111E-01   -91.18
  -70.00   330.00      -9.77   -5.23   -3.92    0.00000    59.36  LINEAR    2.09414E-01   -91.20    3.53504E-01   -91.20
  -60.00   330.00      -6.27   -5.02   -2.59    0.00000    49.11  LINEAR    3.13398E-01   -91.23    3.61881E-01   -91.23
  -50.00   330.00      -3.84   -4.78   -1.27    0.00000    41.93  LINEAR    4.14551E-01   -91.26    3.72349E-01   -91.26
  -40.00   330.00      -2.06   -4.51   -0.10    0.00000    37.00  LINEAR    5.09137E-01   -91.30    3.83725E-01   -91.30
  -30.00   330.00      -0.75   -4.27    0.85    0.00000    33.69  LINEAR    5.91960E-01   -91.33    3.94640E-01   -91.33
  -20.00   330.00       0.16   -4.07    1.55    0.00000    31.57  LINEAR    6.57064E-01   -91.35    4.03702E-01   -91.35
  -10.00   330.00       0.69   -3.95    1.98    0.00000    30.38  LINEAR    6.98837E-01   -91.36    4.09698E-01   -91.36
    0.00   330.00       0.87   -3.90    2.12    0.00000    30.00  LINEAR    7.13250E-01   -91.36    4.11795E-01   -91.36
   10.00   330.00       0.69   -3.95    1.98    0.00000    30.38  LINEAR    6.98837E-01   -91.35    4.09698E-01   -91.35
   20.00   330.00       0.16   -4.07    1.55    0.00000    31.57  LINEAR    6.57064E-01   -91.33    4.03702E-01   -91.33
   30.00   330.00      -0.75   -4.27    0.85    0.00000    33.69  LINEAR    5.91960E-01   -91.29    3.94640E-01   -91.29
   40.00   330.00      -2.06   -4.51   -0.10    0.00000    37.00  LINEAR    5.09137E-01   -91.26    3.83725E-01   -91.26
   50.00   330.00      -3.84   -4.78   -1.27    0.00000    41.93  LINEAR    4.14551E-01   -91.21    3.72349E-01   -91.21
   60.00   330.00      -6.27   -5.02   -2.59    0.00000    49.11  LINEAR    3.13398E-01   -91.18    3.61881E-01   -91.18
   70.00   330.00      -9.77   -5.23   -3.92    0.00000    59.36  LINEAR    2.09414E-01   -91.14    3.53504E-01   -91.14
   80.00   330.00     -15.80   -5.36   -4.98    0.00000    73.26  LINEAR    1.04701E-01   -91.12    3.48111E-01   -91.12
   90.00   330.00    -999.99   -5.41   -5.41    0.00000   -90.00  LINEAR    3.06078E-12    88.89    3.46252E-01   -91.11
  100.00   330.00     -15.80   -5.36   -4.98    0.00000   -73.26  LINEAR    1.04701E-01    88.88    3.48111E-01   -91.12
  110.00   330.00      -9.77   -5.23   -3.92    0.00000   -59.36  LINEAR    2.09414E-01    88.86    3.53504E-01   -91.14
  120.00   330.00      -6.27   -5.02   -2.59    0.00000   -49.11  LINEAR    3.13398E-01    88.82    3.61881E-01   -91.18
  130.00   330.00      -3.84   -4.78   -1.27    0.00000   -41.93  LINEAR    4.14551E-01    88.79    3.72349E-01   -91.21
  140.00   330.00      -2.06   -4.51   -0.10    0.00000   -37.00  LINEAR    5.09137E-01    88.74    3.83725E-01   -91.26
  150.00   330.00      -0.75   -4.27    0.85    0.00000   -33.69  LINEAR    5.91960E-01    88.71    3.94640E-01   -91.29
  160.00   330.00       0.16   -4.07    1.55    0.00000   -31.57  LINEAR    6.57064E-01    88.67    4.03702E-01   -91.33
  170.00   330.00       0.69   -3.95    1.98    0.00000   -30.38  LINEAR    6.98837E-01    88.65    4.09698E-01   -91.35
 -180.00   340.00       1.58   -7.20    2.12    0.00000   -20.00  LINEAR    7.73921E-01    88.64    2.81684E-01   -91.36
 -170.00   340.00       1.39   -7.25    1.95    0.00000   -20.28  LINEAR    7.57595E-01    88.64    2.79996E-01   -91.36
 -160.00   340.00       0.84   -7.40    1.44    0.00000   -21.17  LINEAR    7.10443E-01    88.66    2.75175E-01   -91.34
 -150.00   340.00      -0.11   -7.64    0.60    0.00000   -22.80  LINEAR    6.37451E-01    88.68    2.67906E-01   -91.32
 -140.00   340.00      -1.46   -7.92   -0.58    0.00000   -25.41  LINEAR    5.45491E-01    88.72    2.59179E-01   -91.28
 -130.00   340.00      -3.29   -8.23   -2.08    0.00000   -29.52  LINEAR    4.41719E-01    88.76    2.50118E-01   -91.24
 -120.00   340.00      -5.77   -8.53   -3.92    0.00000   -36.05  LINEAR    3.32185E-01    88.80    2.41811E-01   -91.20
 -110.00   340.00      -9.31   -8.77   -6.02    0.00000   -46.78  LINEAR    2.21002E-01    88.83    2.35186E-01   -91.17
 -100.00   340.00     -15.35   -8.93   -8.03    0.00000   -64.49  LINEAR    1.10176E-01    88.85    2.30932E-01   -91.15
  -90.00   340.00    -999.99   -8.98   -8.98    0.00000   -90.00  LINEAR    3.21762E-12    88.86    2.29467E-01   -91.14
  -80.00   340.00     -15.35   -8.93   -8.03    0.00000    64.49  LINEAR    1.10176E-01   -91.15    2.30932E-01   -91.15
  -70.00   340.00      -9.31   -8.77   -6.02    0.00000    46.78  LINEAR    2.21002E-01   -91.17    2.35186E-01   -91.17
  -60.00   340.00      -5.77   -8.53   -3.92    0.00000    36.05  LINEAR    3.32185E-01   -91.20    2.41811E-01   -91.20
  -50.00   340.00      -3.29   -8.23   -2.08    0.00000    29.52  LINEAR    4.41719E-01   -91.24    2.50118E-01   -91.24
  -40.00   340.00      -1.46   -7.92   -0.58    0.00000    25.41  LINEAR    5.45491E-01   -91.28    2.59179E-01   -91.28
  -30.00   340.00      -0.11   -7.64    0.60    0.00000    22.80  LINEAR    6.37451E-01   -91.32    2.67906E-01   -91.32
  -20.00   340.00       0.84   -7.40    1.44    0.00000    21.17  LINEAR    7.10443E-01   -91.34    2.75175E-01   -91.34
  -10.00   340.00       1.39   -7.25    1.95    0.00000    20.28  LINEAR    7.57595E-01   -91.36    2.79996E-01   -91.36
    0.00   340.00       1.58   -7.20    2.12    0.00000    20.00  LINEAR    7.73921E-01   -91.36    2.81684E-01   -91.36
   10.00   340.00       1.39   -7.25    1.95    0.00000    20.28  LINEAR    7.57595E-01   -91.35    2.79996E-01   -91.35
   20.00   340.00       0.84   -7.40    1.44    0.00000    21.17  LINEAR    7.10443E-01   -91.32    2.75175E-01   -91.32
   30.00   340.00      -0.11   -7.64    0.60    0.00000    22.80  LINEAR    6.37451E-01   -91.28    2.67906E-01   -91.28
   40.00   340.00      -1.46   -7.92   -0.58    0.00000    25.41  LINEAR    5.45491E-01   -91.24    2.59179E-01   -91.24
   50.00   340.00      -3.29   -8.23   -2.08    0.00000    29.52  LINEAR    4.41719E-01   -91.19    2.50118E-01   -91.19
   60.00   340.00      -5.77   -8.53   -3.92    0.00000    36.05  LINEAR    3.32185E-01   -91.14    2.41811E-01   -91.14
   70.00   340.00      -9.31   -8.77   -6.02    0.00000    46.78  LINEAR    2.21002E-01   -91.10    2.35186E-01   -91.10
   80.00   340.00     -15.35   -8.93   -8.03    0.00000    64.49  LINEAR    1.10176E-01   -91.08    2.30932E-01   -91.08
   90.00   340.00    -999.99   -8.98   -8.98    0.00000   -90.00  LINEAR    3.21762E-12    88.93    2.29467E-01   -91.07
  100.00   340.00     -15.35   -8.93   -8.03    0.00000   -64.49  LINEAR    1.10176E-01    88.92    2.30932E-01   -91.08
  110.00   340.00      -9.31   -8.77   -6.02    0.00000   -46.78  LINEAR    2.21002E-01    88.90    2.35186E-01   -91.10
  120.00   340.00      -5.77   -8.53   -3.92    0.00000   -36.05  LINEAR    3.32185E-01    88.86    2.41811E-01   -91.14
  130.00   340.00      -3.29   -8.23   -2.08    0.00000   -29.52  LINEAR    4.41719E-01    88.81    2.50118E-01   -91.19
  140.00   340.00      -1.46   -7.92   -0.58    0.00000   -25.41  LINEAR    5.45491E-01    88.76    2.59179E-01   -91.24
  150.00   340.00      -0.11   -7.64    0.60    0.00000   -22.80  LINEAR    6.37451E-01    88.72    2.67906E-01   -91.28
  160.00   340.00       0.84   -7.40    1.44    0.00000   -21.17  LINEAR    7.10443E-01    88.68    2.75175E-01   -91.32
  170.00   340.00       1.39   -7.25    1.95    0.00000   -20.28  LINEAR    7.57595E-01    88.65    2.79996E-01   -91.35
 -180.00   350.00       1.99  -13.09    2.12    0.00000   -10.00  LINEAR    8.11078E-01    88.64    1.43015E-01   -91.36
 -170.00   350.00       1.80  -13.14    1.93    0.00000   -10.15  LINEAR    7.93498E-01    88.64    1.42074E-01   -91.36
 -160.00   350.00       1.22  -13.31    1.37    0.00000   -10.63  LINEAR    7.42836E-01    88.66    1.39388E-01   -91.34
 -150.00   350.00       0.26  -13.57    0.43    0.00000   -11.51  LINEAR    6.64744E-01    88.69    1.35345E-01   -91.31
 -140.00   350.00      -1.12  -13.88   -0.90    0.00000   -12.96  LINEAR    5.66959E-01    88.73    1.30502E-01   -91.27
 -130.00   350.00      -2.99  -14.22   -2.67    0.00000   -15.34  LINEAR    4.57447E-01    88.77    1.25485E-01   -91.23
 -120.00   350.00      -5.49  -14.55   -4.98    0.00000   -19.43  LINEAR    3.42823E-01    88.82    1.20898E-01   -91.18
 -110.00   350.00      -9.06  -14.81   -8.03    0.00000   -27.27  LINEAR    2.27423E-01    88.85    1.17247E-01   -91.15
 -100.00   350.00     -15.12  -14.99  -12.04    0.00000   -45.44  LINEAR    1.13161E-01    88.88    1.14907E-01   -91.12
  -90.00   350.00    -999.99  -15.05  -15.05    0.00000   -90.00  LINEAR    3.30258E-12    88.89    1.14102E-01   -91.11
  -80.00   350.00     -15.12  -14.99  -12.04    0.00000    45.44  LINEAR    1.13161E-01   -91.12    1.14907E-01   -91.12
  -70.00   350.00      -9.06  -14.81   -8.03    0.00000    27.27  LINEAR    2.27423E-01   -91.15    1.17247E-01   -91.15
  -60.00   350.00      -5.49  -14.55   -4.98    0.00000    19.43  LINEAR    3.42823E-01   -91.18    1.20898E-01   -91.18
  -50.00   350.00      -2.99  -14.22   -2.67    0.00000    15.34  LINEAR    4.57447E-01   -91.23    1.25485E-01   -91.23
  -40.00   350.00      -1.12  -13.88   -0.90    0.00000    12.96  LINEAR    5.66959E-01   -91.27    1.30502E-01   -91.27
  -30.00   350.00       0.26  -13.57    0.43    0.00000    11.51  LINEAR    6.64744E-01   -91.31    1.35345E-01   -91.31
  -20.00   350.00       1.22  -13.31    1.37    0.00000    10.63  LINEAR    7.42836E-01   -91.34    1.39388E-01   -91.34
  -10.00   350.00       1.80  -13.14    1.93    0.00000    10.15  LINEAR    7.93498E-01   -91.36    1.42074E-01   -91.36
    0.00   350.00       1.99  -13.09    2.12    0.00000    10.00  LINEAR    8.11078E-01   -91.36    1.43015E-01   -91.36
   10.00   350.00       1.80  -13.14    1.93    0.00000    10.15  LINEAR    7.93498E-01   -91.35    1.42074E-01   -91.35
   20.00   350.00       1.22  -13.31    1.37    0.00000    10.63  LINEAR    7.42836E-01   -91.32    1.39388E-01   -91.32
   30.00   350.00       0.26  -13.57    0.43    0.00000    11.51  LINEAR    6.64744E-01   -91.28    1.35345E-01   -91.28
   40.00   350.00      -1.12  -13.88   -0.90    0.00000    12.96  LINEAR    5.66959E-01   -91.23    1.30502E-01   -91.23
   50.00   350.00      -2.99  -14.22   -2.67    0.00000    15.34  LINEAR    4.57447E-01   -91.17    1.25485E-01   -91.17
   60.00   350.00      -5.49  -14.55   -4.98    0.00000    19.43  LINEAR    3.42823E-01   -91.12    1.20898E-01   -91.12
   70.00   350.00      -9.06  -14.81   -8.03    0.00000    27.27  LINEAR    2.27423E-01   -91.08    1.17247E-01   -91.08
   80.00   350.00     -15.12  -14.99  -12.04    0.00000    45.44  LINEAR    1.13161E-01   -91.05    1.14907E-01   -91.05
   90.00   350.00    -999.99  -15.05  -15.05    0.00000   -90.00  LINEAR    3.30258E-12    88.96    1.14102E-01   -91.04
  100.00   350.00     -15.12  -14.99  -12.04    0.00000   -45.44  LINEAR    1.13161E-01    88.95    1.14907E-01   -91.05
  110.00   350.00      -9.06  -14.81   -8.03    0.00000   -27.27  LINEAR    2.27423E-01    88.92    1.17247E-01   -91.08
  120.00   350.00      -5.49  -14.55   -4.98    0.00000   -19.43  LINEAR    3.42823E-01    88.88    1.20898E-01   -91.12
  130.00   350.00      -2.99  -14.22   -2.67    0.00000   -15.34  LINEAR    4.57447E-01    88.83    1.25485E-01   -91.17
  140.00   350.00      -1.12  -13.88   -0.90    0.00000   -12.96  LINEAR    5.66959E-01    88.77    1.30502E-01   -91.23
  150.00   350.00       0.26  -13.57    0.43    0.00000   -11.51  LINEAR    6.64744E-01    88.72    1.35345E-01   -91.28
  160.00   350.00       1.22  -13.31    1.37    0.00000   -10.63  LINEAR    7.42836E-01    88.68    1.39388E-01   -91.32
  170.00   350.00       1.80  -13.14    1.93    0.00000   -10.15  LINEAR    7.93498E-01    88.65    1.42074E-01   -91.35






 ***** DATA CARD NO.  5   XQ   0     0     0     0  0.00000E+00  0.00000E+00  0.00000E+00  0.00000E+00  0.00000E+00  0.00000E+00
 ***** DATA CARD NO.  6   EN   0     0     0     0  0.00000E+00  0.00000E+00  0.00000E+00  0.00000E+00  0.00000E+00  0.00000E+00

 RUN TIME =     1.380
