1



                                 *********************************************

                                    NUMERICAL ELECTROMAGNETICS CODE (NEC-2D)

                                 *********************************************




                                     - - - - COMMENTS - - - -


                          2-part Helix model                                                         
                          1st 2-turns are used as matching section, smaller pitch.                   
                          2nd set of N-2 turns are standard pitch and spacing.                       
                                                                                                     




                                 - - - STRUCTURE SPECIFICATION - - -

                                     COORDINATES MUST BE INPUT IN
                                     METERS OR BE SCALED TO METERS
                                     BEFORE STRUCTURE INPUT IS ENDED


  WIRE                                                                               NO. OF    FIRST  LAST     TAG
  NO.        X1         Y1         Z1          X2         Y2         Z2      RADIUS   SEG.     SEG.   SEG.     NO.
     HELIX STRUCTURE-   AXIAL SPACING BETWEEN TURNS =   0.169 TOTAL AXIAL LENGTH =   0.337
     1  RADIUS OF HELIX =     0.191     0.191     0.191     0.191           0.00010      36        1    36       1
     THE PITCH ANGLE IS    8.0000
     THE LENGTH OF WIRE/TURN IS    1.2118
     HELIX STRUCTURE-   AXIAL SPACING BETWEEN TURNS =   0.266 TOTAL AXIAL LENGTH =   0.266
     2  RADIUS OF HELIX =     0.191     0.191     0.191     0.191           0.00010      18       37    54       2
     THE PITCH ANGLE IS   12.5000
     THE LENGTH OF WIRE/TURN IS    1.2291
      THE STRUCTURE HAS BEEN MOVED, MOVE DATA CARD IS -
        0    0   0.00000   0.00000   0.00000   0.00000   0.00000   0.33730   2.00000
      THE STRUCTURE HAS BEEN MOVED, MOVE DATA CARD IS -
        2    2   0.00000   0.00000   0.00000   0.70000   0.00000   0.00000   1.00000
      THE STRUCTURE HAS BEEN MOVED, MOVE DATA CARD IS -
        6    2   0.00000   0.00000   0.00000   0.00000   0.70000   0.00000   1.00000

   GROUND PLANE SPECIFIED.

   WHERE WIRE ENDS TOUCH GROUND, CURRENT WILL BE INTERPOLATED TO IMAGE IN GROUND PLANE.


   TOTAL SEGMENTS USED=  486     NO. SEG. IN A SYMMETRIC CELL=  486     SYMMETRY FLAG=  0


         - MULTIPLE WIRE JUNCTIONS -
 JUNCTION    SEGMENTS  (- FOR END 1, + FOR END 2)
  NONE




                                 - - - - SEGMENTATION DATA - - - -

                                        COORDINATES IN METERS

                         I+ AND I- INDICATE THE SEGMENTS BEFORE AND AFTER I


  SEG.   COORDINATES OF SEG. CENTER     SEG.     ORIENTATION ANGLES    WIRE    CONNECTION DATA   TAG
  NO.       X         Y         Z       LENGTH     ALPHA     BETA      RADIUS    I-   I    I+    NO.
     1   0.18523   0.03266   0.00468   0.06699    8.04023 100.00000   0.00010     1    1    2      1
     2   0.16289   0.09404   0.01405   0.06699    8.04023 120.00000   0.00010     1    2    3      1
     3   0.12090   0.14408   0.02342   0.06699    8.04023 140.00000   0.00010     2    3    4      1
     4   0.06433   0.17674   0.03279   0.06699    8.04023 160.00000   0.00010     3    4    5      1
     5   0.00000   0.18808   0.04216   0.06699    8.04023 180.00000   0.00010     4    5    6      1
     6  -0.06433   0.17674   0.05153   0.06699    8.04023-160.00000   0.00010     5    6    7      1
     7  -0.12090   0.14408   0.06090   0.06699    8.04023-140.00000   0.00010     6    7    8      1
     8  -0.16289   0.09404   0.07027   0.06699    8.04023-120.00000   0.00010     7    8    9      1
     9  -0.18523   0.03266   0.07964   0.06699    8.04023-100.00000   0.00010     8    9   10      1
    10  -0.18523  -0.03266   0.08901   0.06699    8.04023 -80.00000   0.00010     9   10   11      1
    11  -0.16289  -0.09404   0.09838   0.06699    8.04023 -60.00000   0.00010    10   11   12      1
    12  -0.12090  -0.14408   0.10775   0.06699    8.04023 -40.00000   0.00010    11   12   13      1
    13  -0.06433  -0.17674   0.11712   0.06699    8.04023 -20.00000   0.00010    12   13   14      1
    14   0.00000  -0.18808   0.12649   0.06699    8.04023   0.00000   0.00010    13   14   15      1
    15   0.06433  -0.17674   0.13586   0.06699    8.04023  20.00000   0.00010    14   15   16      1
    16   0.12090  -0.14408   0.14523   0.06699    8.04023  39.99999   0.00010    15   16   17      1
    17   0.16289  -0.09404   0.15459   0.06699    8.04023  59.99999   0.00010    16   17   18      1
    18   0.18523  -0.03266   0.16396   0.06699    8.04023  79.99999   0.00010    17   18   19      1
    19   0.18523   0.03266   0.17333   0.06699    8.04023  99.99999   0.00010    18   19   20      1
    20   0.16289   0.09404   0.18270   0.06699    8.04023 119.99999   0.00010    19   20   21      1
    21   0.12090   0.14408   0.19207   0.06699    8.04023 139.99999   0.00010    20   21   22      1
    22   0.06433   0.17674   0.20144   0.06699    8.04023 159.99999   0.00010    21   22   23      1
    23   0.00000   0.18808   0.21081   0.06699    8.04023 179.99999   0.00010    22   23   24      1
    24  -0.06433   0.17674   0.22018   0.06699    8.04023-160.00001   0.00010    23   24   25      1
    25  -0.12090   0.14408   0.22955   0.06699    8.04023-140.00001   0.00010    24   25   26      1
    26  -0.16289   0.09404   0.23892   0.06699    8.04023-120.00001   0.00010    25   26   27      1
    27  -0.18523   0.03266   0.24829   0.06699    8.04023-100.00001   0.00010    26   27   28      1
    28  -0.18523  -0.03266   0.25766   0.06699    8.04023 -80.00001   0.00010    27   28   29      1
    29  -0.16289  -0.09404   0.26703   0.06699    8.04023 -60.00001   0.00010    28   29   30      1
    30  -0.12090  -0.14408   0.27640   0.06699    8.04023 -40.00001   0.00010    29   30   31      1
    31  -0.06433  -0.17674   0.28577   0.06699    8.04023 -20.00001   0.00010    30   31   32      1
    32   0.00000  -0.18808   0.29514   0.06699    8.04023  -0.00001   0.00010    31   32   33      1
    33   0.06433  -0.17674   0.30451   0.06699    8.04023  19.99999   0.00010    32   33   34      1
    34   0.12090  -0.14408   0.31387   0.06699    8.04023  39.99999   0.00010    33   34   35      1
    35   0.16289  -0.09404   0.32324   0.06699    8.04023  59.99999   0.00010    34   35   36      1
    36   0.18523  -0.03266   0.33261   0.06699    8.04023  79.99999   0.00010    35   36   37      1
    37   0.18523   0.03266   0.34469   0.06796   12.56167 100.00000   0.00010    36   37   38      2
    38   0.16289   0.09404   0.35947   0.06796   12.56167 120.00000   0.00010    37   38   39      2
    39   0.12090   0.14408   0.37425   0.06796   12.56167 140.00000   0.00010    38   39   40      2
    40   0.06433   0.17674   0.38903   0.06796   12.56167 160.00000   0.00010    39   40   41      2
    41   0.00000   0.18808   0.40381   0.06796   12.56167 180.00000   0.00010    40   41   42      2
    42  -0.06433   0.17674   0.41859   0.06796   12.56167-160.00000   0.00010    41   42   43      2
    43  -0.12090   0.14408   0.43337   0.06796   12.56167-140.00000   0.00010    42   43   44      2
    44  -0.16289   0.09404   0.44815   0.06796   12.56167-120.00000   0.00010    43   44   45      2
    45  -0.18523   0.03266   0.46292   0.06796   12.56167-100.00000   0.00010    44   45   46      2
    46  -0.18523  -0.03266   0.47770   0.06796   12.56167 -80.00000   0.00010    45   46   47      2
    47  -0.16289  -0.09404   0.49248   0.06796   12.56167 -60.00000   0.00010    46   47   48      2
    48  -0.12090  -0.14408   0.50726   0.06796   12.56167 -40.00000   0.00010    47   48   49      2
    49  -0.06433  -0.17674   0.52204   0.06796   12.56167 -20.00000   0.00010    48   49   50      2
    50   0.00000  -0.18808   0.53682   0.06796   12.56167   0.00000   0.00010    49   50   51      2
    51   0.06433  -0.17674   0.55160   0.06796   12.56167  20.00000   0.00010    50   51   52      2
    52   0.12090  -0.14408   0.56638   0.06796   12.56167  39.99999   0.00010    51   52   53      2
    53   0.16289  -0.09404   0.58116   0.06796   12.56167  59.99999   0.00010    52   53   54      2
    54   0.18523  -0.03266   0.59594   0.06796   12.56167  79.99999   0.00010    53   54    0      2
    55   0.88523   0.03266   0.00468   0.06699    8.04023 100.00000   0.00010    55   55   56      3
    56   0.86289   0.09404   0.01405   0.06699    8.04023 120.00000   0.00010    55   56   57      3
    57   0.82090   0.14408   0.02342   0.06699    8.04023 140.00000   0.00010    56   57   58      3
    58   0.76433   0.17674   0.03279   0.06699    8.04023 160.00000   0.00010    57   58   59      3
    59   0.70000   0.18808   0.04216   0.06699    8.04023 180.00000   0.00010    58   59   60      3
    60   0.63567   0.17674   0.05153   0.06699    8.04023-160.00000   0.00010    59   60   61      3
    61   0.57910   0.14408   0.06090   0.06699    8.04023-140.00000   0.00010    60   61   62      3
    62   0.53711   0.09404   0.07027   0.06699    8.04023-120.00000   0.00010    61   62   63      3
    63   0.51477   0.03266   0.07964   0.06699    8.04023-100.00000   0.00010    62   63   64      3
    64   0.51477  -0.03266   0.08901   0.06699    8.04023 -80.00000   0.00010    63   64   65      3
    65   0.53711  -0.09404   0.09838   0.06699    8.04023 -60.00000   0.00010    64   65   66      3
    66   0.57910  -0.14408   0.10775   0.06699    8.04023 -40.00000   0.00010    65   66   67      3
    67   0.63567  -0.17674   0.11712   0.06699    8.04023 -20.00000   0.00010    66   67   68      3
    68   0.70000  -0.18808   0.12649   0.06699    8.04023   0.00000   0.00010    67   68   69      3
    69   0.76433  -0.17674   0.13586   0.06699    8.04023  20.00000   0.00010    68   69   70      3
    70   0.82090  -0.14408   0.14523   0.06699    8.04023  39.99999   0.00010    69   70   71      3
    71   0.86289  -0.09404   0.15459   0.06699    8.04023  59.99999   0.00010    70   71   72      3
    72   0.88523  -0.03266   0.16396   0.06699    8.04023  79.99999   0.00010    71   72   73      3
    73   0.88523   0.03266   0.17333   0.06699    8.04023  99.99999   0.00010    72   73   74      3
    74   0.86289   0.09404   0.18270   0.06699    8.04023 119.99999   0.00010    73   74   75      3
    75   0.82090   0.14408   0.19207   0.06699    8.04023 139.99999   0.00010    74   75   76      3
    76   0.76433   0.17674   0.20144   0.06699    8.04023 159.99999   0.00010    75   76   77      3
    77   0.70000   0.18808   0.21081   0.06699    8.04023 179.99999   0.00010    76   77   78      3
    78   0.63567   0.17674   0.22018   0.06699    8.04023-160.00001   0.00010    77   78   79      3
    79   0.57910   0.14408   0.22955   0.06699    8.04023-140.00001   0.00010    78   79   80      3
    80   0.53711   0.09404   0.23892   0.06699    8.04023-120.00001   0.00010    79   80   81      3
    81   0.51477   0.03266   0.24829   0.06699    8.04023-100.00001   0.00010    80   81   82      3
    82   0.51477  -0.03266   0.25766   0.06699    8.04023 -80.00001   0.00010    81   82   83      3
    83   0.53711  -0.09404   0.26703   0.06699    8.04023 -60.00001   0.00010    82   83   84      3
    84   0.57910  -0.14408   0.27640   0.06699    8.04023 -40.00001   0.00010    83   84   85      3
    85   0.63567  -0.17674   0.28577   0.06699    8.04023 -20.00001   0.00010    84   85   86      3
    86   0.70000  -0.18808   0.29514   0.06699    8.04023  -0.00001   0.00010    85   86   87      3
    87   0.76433  -0.17674   0.30451   0.06699    8.04023  19.99999   0.00010    86   87   88      3
    88   0.82090  -0.14408   0.31387   0.06699    8.04023  39.99999   0.00010    87   88   89      3
    89   0.86289  -0.09404   0.32324   0.06699    8.04023  59.99999   0.00010    88   89   90      3
    90   0.88523  -0.03266   0.33261   0.06699    8.04023  79.99999   0.00010    89   90   91      3
    91   0.88523   0.03266   0.34469   0.06796   12.56167 100.00000   0.00010    90   91   92      4
    92   0.86289   0.09404   0.35947   0.06796   12.56167 120.00000   0.00010    91   92   93      4
    93   0.82090   0.14408   0.37425   0.06796   12.56167 140.00000   0.00010    92   93   94      4
    94   0.76433   0.17674   0.38903   0.06796   12.56167 160.00000   0.00010    93   94   95      4
    95   0.70000   0.18808   0.40381   0.06796   12.56167 180.00000   0.00010    94   95   96      4
    96   0.63567   0.17674   0.41859   0.06796   12.56167-160.00000   0.00010    95   96   97      4
    97   0.57910   0.14408   0.43337   0.06796   12.56167-140.00000   0.00010    96   97   98      4
    98   0.53711   0.09404   0.44815   0.06796   12.56167-120.00000   0.00010    97   98   99      4
    99   0.51477   0.03266   0.46292   0.06796   12.56167-100.00000   0.00010    98   99  100      4
   100   0.51477  -0.03266   0.47770   0.06796   12.56167 -80.00000   0.00010    99  100  101      4
   101   0.53711  -0.09404   0.49248   0.06796   12.56167 -60.00000   0.00010   100  101  102      4
   102   0.57910  -0.14408   0.50726   0.06796   12.56167 -40.00000   0.00010   101  102  103      4
   103   0.63567  -0.17674   0.52204   0.06796   12.56167 -20.00000   0.00010   102  103  104      4
   104   0.70000  -0.18808   0.53682   0.06796   12.56167   0.00000   0.00010   103  104  105      4
   105   0.76433  -0.17674   0.55160   0.06796   12.56167  20.00000   0.00010   104  105  106      4
   106   0.82090  -0.14408   0.56638   0.06796   12.56167  39.99999   0.00010   105  106  107      4
   107   0.86289  -0.09404   0.58116   0.06796   12.56167  59.99999   0.00010   106  107  108      4
   108   0.88523  -0.03266   0.59594   0.06796   12.56167  79.99999   0.00010   107  108    0      4
   109   1.58523   0.03266   0.00468   0.06699    8.04023 100.00000   0.00010   109  109  110      5
   110   1.56289   0.09404   0.01405   0.06699    8.04023 120.00000   0.00010   109  110  111      5
   111   1.52090   0.14408   0.02342   0.06699    8.04023 140.00000   0.00010   110  111  112      5
   112   1.46433   0.17674   0.03279   0.06699    8.04023 160.00000   0.00010   111  112  113      5
   113   1.40000   0.18808   0.04216   0.06699    8.04023 180.00000   0.00010   112  113  114      5
   114   1.33567   0.17674   0.05153   0.06699    8.04023-160.00000   0.00010   113  114  115      5
   115   1.27910   0.14408   0.06090   0.06699    8.04023-140.00000   0.00010   114  115  116      5
   116   1.23711   0.09404   0.07027   0.06699    8.04023-120.00000   0.00010   115  116  117      5
   117   1.21477   0.03266   0.07964   0.06699    8.04023-100.00000   0.00010   116  117  118      5
   118   1.21477  -0.03266   0.08901   0.06699    8.04023 -80.00000   0.00010   117  118  119      5
   119   1.23711  -0.09404   0.09838   0.06699    8.04023 -60.00000   0.00010   118  119  120      5
   120   1.27910  -0.14408   0.10775   0.06699    8.04023 -40.00000   0.00010   119  120  121      5
   121   1.33567  -0.17674   0.11712   0.06699    8.04023 -20.00000   0.00010   120  121  122      5
   122   1.40000  -0.18808   0.12649   0.06699    8.04023   0.00000   0.00010   121  122  123      5
   123   1.46433  -0.17674   0.13586   0.06699    8.04023  20.00000   0.00010   122  123  124      5
   124   1.52090  -0.14408   0.14523   0.06699    8.04023  39.99999   0.00010   123  124  125      5
   125   1.56289  -0.09404   0.15459   0.06699    8.04023  59.99999   0.00010   124  125  126      5
   126   1.58523  -0.03266   0.16396   0.06699    8.04023  79.99999   0.00010   125  126  127      5
   127   1.58523   0.03266   0.17333   0.06699    8.04023  99.99999   0.00010   126  127  128      5
   128   1.56289   0.09404   0.18270   0.06699    8.04023 119.99999   0.00010   127  128  129      5
   129   1.52090   0.14408   0.19207   0.06699    8.04023 139.99999   0.00010   128  129  130      5
   130   1.46433   0.17674   0.20144   0.06699    8.04023 159.99999   0.00010   129  130  131      5
   131   1.40000   0.18808   0.21081   0.06699    8.04023 179.99999   0.00010   130  131  132      5
   132   1.33567   0.17674   0.22018   0.06699    8.04023-160.00001   0.00010   131  132  133      5
   133   1.27910   0.14408   0.22955   0.06699    8.04023-140.00001   0.00010   132  133  134      5
   134   1.23711   0.09404   0.23892   0.06699    8.04023-120.00001   0.00010   133  134  135      5
   135   1.21477   0.03266   0.24829   0.06699    8.04023-100.00001   0.00010   134  135  136      5
   136   1.21477  -0.03266   0.25766   0.06699    8.04023 -80.00001   0.00010   135  136  137      5
   137   1.23711  -0.09404   0.26703   0.06699    8.04023 -60.00001   0.00010   136  137  138      5
   138   1.27910  -0.14408   0.27640   0.06699    8.04023 -40.00001   0.00010   137  138  139      5
   139   1.33567  -0.17674   0.28577   0.06699    8.04023 -20.00001   0.00010   138  139  140      5
   140   1.40000  -0.18808   0.29514   0.06699    8.04023  -0.00001   0.00010   139  140  141      5
   141   1.46433  -0.17674   0.30451   0.06699    8.04023  19.99999   0.00010   140  141  142      5
   142   1.52090  -0.14408   0.31387   0.06699    8.04023  39.99999   0.00010   141  142  143      5
   143   1.56289  -0.09404   0.32324   0.06699    8.04023  59.99999   0.00010   142  143  144      5
   144   1.58523  -0.03266   0.33261   0.06699    8.04023  79.99999   0.00010   143  144  145      5
   145   1.58523   0.03266   0.34469   0.06796   12.56167 100.00000   0.00010   144  145  146      6
   146   1.56289   0.09404   0.35947   0.06796   12.56167 120.00000   0.00010   145  146  147      6
   147   1.52090   0.14408   0.37425   0.06796   12.56167 140.00000   0.00010   146  147  148      6
   148   1.46433   0.17674   0.38903   0.06796   12.56167 160.00000   0.00010   147  148  149      6
   149   1.40000   0.18808   0.40381   0.06796   12.56167 180.00000   0.00010   148  149  150      6
   150   1.33567   0.17674   0.41859   0.06796   12.56167-160.00000   0.00010   149  150  151      6
   151   1.27910   0.14408   0.43337   0.06796   12.56167-140.00000   0.00010   150  151  152      6
   152   1.23711   0.09404   0.44815   0.06796   12.56167-120.00000   0.00010   151  152  153      6
   153   1.21477   0.03266   0.46292   0.06796   12.56167-100.00000   0.00010   152  153  154      6
   154   1.21477  -0.03266   0.47770   0.06796   12.56167 -80.00000   0.00010   153  154  155      6
   155   1.23711  -0.09404   0.49248   0.06796   12.56167 -60.00000   0.00010   154  155  156      6
   156   1.27910  -0.14408   0.50726   0.06796   12.56167 -40.00000   0.00010   155  156  157      6
   157   1.33567  -0.17674   0.52204   0.06796   12.56167 -20.00000   0.00010   156  157  158      6
   158   1.40000  -0.18808   0.53682   0.06796   12.56167   0.00000   0.00010   157  158  159      6
   159   1.46433  -0.17674   0.55160   0.06796   12.56167  20.00000   0.00010   158  159  160      6
   160   1.52090  -0.14408   0.56638   0.06796   12.56167  39.99999   0.00010   159  160  161      6
   161   1.56289  -0.09404   0.58116   0.06796   12.56167  59.99999   0.00010   160  161  162      6
   162   1.58523  -0.03266   0.59594   0.06796   12.56167  79.99999   0.00010   161  162    0      6
   163   0.18523   0.73266   0.00468   0.06699    8.04023 100.00000   0.00010   163  163  164      7
   164   0.16289   0.79404   0.01405   0.06699    8.04023 120.00000   0.00010   163  164  165      7
   165   0.12090   0.84408   0.02342   0.06699    8.04023 140.00000   0.00010   164  165  166      7
   166   0.06433   0.87674   0.03279   0.06699    8.04023 160.00000   0.00010   165  166  167      7
   167   0.00000   0.88808   0.04216   0.06699    8.04023 180.00000   0.00010   166  167  168      7
   168  -0.06433   0.87674   0.05153   0.06699    8.04023-160.00000   0.00010   167  168  169      7
   169  -0.12090   0.84408   0.06090   0.06699    8.04023-140.00000   0.00010   168  169  170      7
   170  -0.16289   0.79404   0.07027   0.06699    8.04023-120.00000   0.00010   169  170  171      7
   171  -0.18523   0.73266   0.07964   0.06699    8.04023-100.00000   0.00010   170  171  172      7
   172  -0.18523   0.66734   0.08901   0.06699    8.04023 -80.00000   0.00010   171  172  173      7
   173  -0.16289   0.60596   0.09838   0.06699    8.04023 -60.00000   0.00010   172  173  174      7
   174  -0.12090   0.55592   0.10775   0.06699    8.04023 -40.00000   0.00010   173  174  175      7
   175  -0.06433   0.52326   0.11712   0.06699    8.04023 -20.00000   0.00010   174  175  176      7
   176   0.00000   0.51192   0.12649   0.06699    8.04023   0.00000   0.00010   175  176  177      7
   177   0.06433   0.52326   0.13586   0.06699    8.04023  20.00000   0.00010   176  177  178      7
   178   0.12090   0.55592   0.14523   0.06699    8.04023  39.99999   0.00010   177  178  179      7
   179   0.16289   0.60596   0.15459   0.06699    8.04023  59.99999   0.00010   178  179  180      7
   180   0.18523   0.66734   0.16396   0.06699    8.04023  79.99999   0.00010   179  180  181      7
   181   0.18523   0.73266   0.17333   0.06699    8.04023  99.99999   0.00010   180  181  182      7
   182   0.16289   0.79404   0.18270   0.06699    8.04023 119.99999   0.00010   181  182  183      7
   183   0.12090   0.84408   0.19207   0.06699    8.04023 139.99999   0.00010   182  183  184      7
   184   0.06433   0.87674   0.20144   0.06699    8.04023 159.99999   0.00010   183  184  185      7
   185   0.00000   0.88808   0.21081   0.06699    8.04023 179.99999   0.00010   184  185  186      7
   186  -0.06433   0.87674   0.22018   0.06699    8.04023-160.00001   0.00010   185  186  187      7
   187  -0.12090   0.84408   0.22955   0.06699    8.04023-140.00001   0.00010   186  187  188      7
   188  -0.16289   0.79404   0.23892   0.06699    8.04023-120.00001   0.00010   187  188  189      7
   189  -0.18523   0.73266   0.24829   0.06699    8.04023-100.00001   0.00010   188  189  190      7
   190  -0.18523   0.66734   0.25766   0.06699    8.04023 -80.00001   0.00010   189  190  191      7
   191  -0.16289   0.60596   0.26703   0.06699    8.04023 -60.00001   0.00010   190  191  192      7
   192  -0.12090   0.55592   0.27640   0.06699    8.04023 -40.00001   0.00010   191  192  193      7
   193  -0.06433   0.52326   0.28577   0.06699    8.04023 -20.00001   0.00010   192  193  194      7
   194   0.00000   0.51192   0.29514   0.06699    8.04023  -0.00001   0.00010   193  194  195      7
   195   0.06433   0.52326   0.30451   0.06699    8.04023  19.99999   0.00010   194  195  196      7
   196   0.12090   0.55592   0.31387   0.06699    8.04023  39.99999   0.00010   195  196  197      7
   197   0.16289   0.60596   0.32324   0.06699    8.04023  59.99999   0.00010   196  197  198      7
   198   0.18523   0.66734   0.33261   0.06699    8.04023  79.99999   0.00010   197  198  199      7
   199   0.18523   0.73266   0.34469   0.06796   12.56167 100.00000   0.00010   198  199  200      8
   200   0.16289   0.79404   0.35947   0.06796   12.56167 120.00000   0.00010   199  200  201      8
   201   0.12090   0.84408   0.37425   0.06796   12.56167 140.00000   0.00010   200  201  202      8
   202   0.06433   0.87674   0.38903   0.06796   12.56167 160.00000   0.00010   201  202  203      8
   203   0.00000   0.88808   0.40381   0.06796   12.56167 180.00000   0.00010   202  203  204      8
   204  -0.06433   0.87674   0.41859   0.06796   12.56167-160.00000   0.00010   203  204  205      8
   205  -0.12090   0.84408   0.43337   0.06796   12.56167-140.00000   0.00010   204  205  206      8
   206  -0.16289   0.79404   0.44815   0.06796   12.56167-120.00000   0.00010   205  206  207      8
   207  -0.18523   0.73266   0.46292   0.06796   12.56167-100.00000   0.00010   206  207  208      8
   208  -0.18523   0.66734   0.47770   0.06796   12.56167 -80.00000   0.00010   207  208  209      8
   209  -0.16289   0.60596   0.49248   0.06796   12.56167 -60.00000   0.00010   208  209  210      8
   210  -0.12090   0.55592   0.50726   0.06796   12.56167 -40.00000   0.00010   209  210  211      8
   211  -0.06433   0.52326   0.52204   0.06796   12.56167 -20.00000   0.00010   210  211  212      8
   212   0.00000   0.51192   0.53682   0.06796   12.56167   0.00000   0.00010   211  212  213      8
   213   0.06433   0.52326   0.55160   0.06796   12.56167  20.00000   0.00010   212  213  214      8
   214   0.12090   0.55592   0.56638   0.06796   12.56167  39.99999   0.00010   213  214  215      8
   215   0.16289   0.60596   0.58116   0.06796   12.56167  59.99999   0.00010   214  215  216      8
   216   0.18523   0.66734   0.59594   0.06796   12.56167  79.99999   0.00010   215  216    0      8
   217   0.88523   0.73266   0.00468   0.06699    8.04023 100.00000   0.00010   217  217  218      9
   218   0.86289   0.79404   0.01405   0.06699    8.04023 120.00000   0.00010   217  218  219      9
   219   0.82090   0.84408   0.02342   0.06699    8.04023 140.00000   0.00010   218  219  220      9
   220   0.76433   0.87674   0.03279   0.06699    8.04023 160.00000   0.00010   219  220  221      9
   221   0.70000   0.88808   0.04216   0.06699    8.04023 180.00000   0.00010   220  221  222      9
   222   0.63567   0.87674   0.05153   0.06699    8.04023-160.00000   0.00010   221  222  223      9
   223   0.57910   0.84408   0.06090   0.06699    8.04023-140.00000   0.00010   222  223  224      9
   224   0.53711   0.79404   0.07027   0.06699    8.04023-120.00000   0.00010   223  224  225      9
   225   0.51477   0.73266   0.07964   0.06699    8.04023-100.00000   0.00010   224  225  226      9
   226   0.51477   0.66734   0.08901   0.06699    8.04023 -80.00000   0.00010   225  226  227      9
   227   0.53711   0.60596   0.09838   0.06699    8.04023 -60.00000   0.00010   226  227  228      9
   228   0.57910   0.55592   0.10775   0.06699    8.04023 -40.00000   0.00010   227  228  229      9
   229   0.63567   0.52326   0.11712   0.06699    8.04023 -20.00000   0.00010   228  229  230      9
   230   0.70000   0.51192   0.12649   0.06699    8.04023   0.00000   0.00010   229  230  231      9
   231   0.76433   0.52326   0.13586   0.06699    8.04023  20.00000   0.00010   230  231  232      9
   232   0.82090   0.55592   0.14523   0.06699    8.04023  39.99999   0.00010   231  232  233      9
   233   0.86289   0.60596   0.15459   0.06699    8.04023  59.99999   0.00010   232  233  234      9
   234   0.88523   0.66734   0.16396   0.06699    8.04023  79.99999   0.00010   233  234  235      9
   235   0.88523   0.73266   0.17333   0.06699    8.04023  99.99999   0.00010   234  235  236      9
   236   0.86289   0.79404   0.18270   0.06699    8.04023 119.99999   0.00010   235  236  237      9
   237   0.82090   0.84408   0.19207   0.06699    8.04023 139.99999   0.00010   236  237  238      9
   238   0.76433   0.87674   0.20144   0.06699    8.04023 159.99999   0.00010   237  238  239      9
   239   0.70000   0.88808   0.21081   0.06699    8.04023 179.99999   0.00010   238  239  240      9
   240   0.63567   0.87674   0.22018   0.06699    8.04023-160.00001   0.00010   239  240  241      9
   241   0.57910   0.84408   0.22955   0.06699    8.04023-140.00001   0.00010   240  241  242      9
   242   0.53711   0.79404   0.23892   0.06699    8.04023-120.00001   0.00010   241  242  243      9
   243   0.51477   0.73266   0.24829   0.06699    8.04023-100.00001   0.00010   242  243  244      9
   244   0.51477   0.66734   0.25766   0.06699    8.04023 -80.00001   0.00010   243  244  245      9
   245   0.53711   0.60596   0.26703   0.06699    8.04023 -60.00001   0.00010   244  245  246      9
   246   0.57910   0.55592   0.27640   0.06699    8.04023 -40.00001   0.00010   245  246  247      9
   247   0.63567   0.52326   0.28577   0.06699    8.04023 -20.00001   0.00010   246  247  248      9
   248   0.70000   0.51192   0.29514   0.06699    8.04023  -0.00001   0.00010   247  248  249      9
   249   0.76433   0.52326   0.30451   0.06699    8.04023  19.99999   0.00010   248  249  250      9
   250   0.82090   0.55592   0.31387   0.06699    8.04023  39.99999   0.00010   249  250  251      9
   251   0.86289   0.60596   0.32324   0.06699    8.04023  59.99999   0.00010   250  251  252      9
   252   0.88523   0.66734   0.33261   0.06699    8.04023  79.99999   0.00010   251  252  253      9
   253   0.88523   0.73266   0.34469   0.06796   12.56167 100.00000   0.00010   252  253  254     10
   254   0.86289   0.79404   0.35947   0.06796   12.56167 120.00000   0.00010   253  254  255     10
   255   0.82090   0.84408   0.37425   0.06796   12.56167 140.00000   0.00010   254  255  256     10
   256   0.76433   0.87674   0.38903   0.06796   12.56167 160.00000   0.00010   255  256  257     10
   257   0.70000   0.88808   0.40381   0.06796   12.56167 180.00000   0.00010   256  257  258     10
   258   0.63567   0.87674   0.41859   0.06796   12.56167-160.00000   0.00010   257  258  259     10
   259   0.57910   0.84408   0.43337   0.06796   12.56167-140.00000   0.00010   258  259  260     10
   260   0.53711   0.79404   0.44815   0.06796   12.56167-120.00000   0.00010   259  260  261     10
   261   0.51477   0.73266   0.46292   0.06796   12.56167-100.00000   0.00010   260  261  262     10
   262   0.51477   0.66734   0.47770   0.06796   12.56167 -80.00000   0.00010   261  262  263     10
   263   0.53711   0.60596   0.49248   0.06796   12.56167 -60.00000   0.00010   262  263  264     10
   264   0.57910   0.55592   0.50726   0.06796   12.56167 -40.00000   0.00010   263  264  265     10
   265   0.63567   0.52326   0.52204   0.06796   12.56167 -20.00000   0.00010   264  265  266     10
   266   0.70000   0.51192   0.53682   0.06796   12.56167   0.00000   0.00010   265  266  267     10
   267   0.76433   0.52326   0.55160   0.06796   12.56167  20.00000   0.00010   266  267  268     10
   268   0.82090   0.55592   0.56638   0.06796   12.56167  39.99999   0.00010   267  268  269     10
   269   0.86289   0.60596   0.58116   0.06796   12.56167  59.99999   0.00010   268  269  270     10
   270   0.88523   0.66734   0.59594   0.06796   12.56167  79.99999   0.00010   269  270    0     10
   271   1.58523   0.73266   0.00468   0.06699    8.04023 100.00000   0.00010   271  271  272     11
   272   1.56289   0.79404   0.01405   0.06699    8.04023 120.00000   0.00010   271  272  273     11
   273   1.52090   0.84408   0.02342   0.06699    8.04023 140.00000   0.00010   272  273  274     11
   274   1.46433   0.87674   0.03279   0.06699    8.04023 160.00000   0.00010   273  274  275     11
   275   1.40000   0.88808   0.04216   0.06699    8.04023 180.00000   0.00010   274  275  276     11
   276   1.33567   0.87674   0.05153   0.06699    8.04023-160.00000   0.00010   275  276  277     11
   277   1.27910   0.84408   0.06090   0.06699    8.04023-140.00000   0.00010   276  277  278     11
   278   1.23711   0.79404   0.07027   0.06699    8.04023-120.00000   0.00010   277  278  279     11
   279   1.21477   0.73266   0.07964   0.06699    8.04023-100.00000   0.00010   278  279  280     11
   280   1.21477   0.66734   0.08901   0.06699    8.04023 -80.00000   0.00010   279  280  281     11
   281   1.23711   0.60596   0.09838   0.06699    8.04023 -60.00000   0.00010   280  281  282     11
   282   1.27910   0.55592   0.10775   0.06699    8.04023 -40.00000   0.00010   281  282  283     11
   283   1.33567   0.52326   0.11712   0.06699    8.04023 -20.00000   0.00010   282  283  284     11
   284   1.40000   0.51192   0.12649   0.06699    8.04023   0.00000   0.00010   283  284  285     11
   285   1.46433   0.52326   0.13586   0.06699    8.04023  20.00000   0.00010   284  285  286     11
   286   1.52090   0.55592   0.14523   0.06699    8.04023  39.99999   0.00010   285  286  287     11
   287   1.56289   0.60596   0.15459   0.06699    8.04023  59.99999   0.00010   286  287  288     11
   288   1.58523   0.66734   0.16396   0.06699    8.04023  79.99999   0.00010   287  288  289     11
   289   1.58523   0.73266   0.17333   0.06699    8.04023  99.99999   0.00010   288  289  290     11
   290   1.56289   0.79404   0.18270   0.06699    8.04023 119.99999   0.00010   289  290  291     11
   291   1.52090   0.84408   0.19207   0.06699    8.04023 139.99999   0.00010   290  291  292     11
   292   1.46433   0.87674   0.20144   0.06699    8.04023 159.99999   0.00010   291  292  293     11
   293   1.40000   0.88808   0.21081   0.06699    8.04023 179.99999   0.00010   292  293  294     11
   294   1.33567   0.87674   0.22018   0.06699    8.04023-160.00001   0.00010   293  294  295     11
   295   1.27910   0.84408   0.22955   0.06699    8.04023-140.00001   0.00010   294  295  296     11
   296   1.23711   0.79404   0.23892   0.06699    8.04023-120.00001   0.00010   295  296  297     11
   297   1.21477   0.73266   0.24829   0.06699    8.04023-100.00001   0.00010   296  297  298     11
   298   1.21477   0.66734   0.25766   0.06699    8.04023 -80.00001   0.00010   297  298  299     11
   299   1.23711   0.60596   0.26703   0.06699    8.04023 -60.00001   0.00010   298  299  300     11
   300   1.27910   0.55592   0.27640   0.06699    8.04023 -40.00001   0.00010   299  300  301     11
   301   1.33567   0.52326   0.28577   0.06699    8.04023 -20.00001   0.00010   300  301  302     11
   302   1.40000   0.51192   0.29514   0.06699    8.04023  -0.00001   0.00010   301  302  303     11
   303   1.46433   0.52326   0.30451   0.06699    8.04023  19.99999   0.00010   302  303  304     11
   304   1.52090   0.55592   0.31387   0.06699    8.04023  39.99999   0.00010   303  304  305     11
   305   1.56289   0.60596   0.32324   0.06699    8.04023  59.99999   0.00010   304  305  306     11
   306   1.58523   0.66734   0.33261   0.06699    8.04023  79.99999   0.00010   305  306  307     11
   307   1.58523   0.73266   0.34469   0.06796   12.56167 100.00000   0.00010   306  307  308     12
   308   1.56289   0.79404   0.35947   0.06796   12.56167 120.00000   0.00010   307  308  309     12
   309   1.52090   0.84408   0.37425   0.06796   12.56167 140.00000   0.00010   308  309  310     12
   310   1.46433   0.87674   0.38903   0.06796   12.56167 160.00000   0.00010   309  310  311     12
   311   1.40000   0.88808   0.40381   0.06796   12.56167 180.00000   0.00010   310  311  312     12
   312   1.33567   0.87674   0.41859   0.06796   12.56167-160.00000   0.00010   311  312  313     12
   313   1.27910   0.84408   0.43337   0.06796   12.56167-140.00000   0.00010   312  313  314     12
   314   1.23711   0.79404   0.44815   0.06796   12.56167-120.00000   0.00010   313  314  315     12
   315   1.21477   0.73266   0.46292   0.06796   12.56167-100.00000   0.00010   314  315  316     12
   316   1.21477   0.66734   0.47770   0.06796   12.56167 -80.00000   0.00010   315  316  317     12
   317   1.23711   0.60596   0.49248   0.06796   12.56167 -60.00000   0.00010   316  317  318     12
   318   1.27910   0.55592   0.50726   0.06796   12.56167 -40.00000   0.00010   317  318  319     12
   319   1.33567   0.52326   0.52204   0.06796   12.56167 -20.00000   0.00010   318  319  320     12
   320   1.40000   0.51192   0.53682   0.06796   12.56167   0.00000   0.00010   319  320  321     12
   321   1.46433   0.52326   0.55160   0.06796   12.56167  20.00000   0.00010   320  321  322     12
   322   1.52090   0.55592   0.56638   0.06796   12.56167  39.99999   0.00010   321  322  323     12
   323   1.56289   0.60596   0.58116   0.06796   12.56167  59.99999   0.00010   322  323  324     12
   324   1.58523   0.66734   0.59594   0.06796   12.56167  79.99999   0.00010   323  324    0     12
   325   0.18523   1.43266   0.00468   0.06699    8.04023 100.00000   0.00010   325  325  326     13
   326   0.16289   1.49404   0.01405   0.06699    8.04023 120.00000   0.00010   325  326  327     13
   327   0.12090   1.54408   0.02342   0.06699    8.04023 140.00000   0.00010   326  327  328     13
   328   0.06433   1.57674   0.03279   0.06699    8.04023 160.00000   0.00010   327  328  329     13
   329   0.00000   1.58808   0.04216   0.06699    8.04023 180.00000   0.00010   328  329  330     13
   330  -0.06433   1.57674   0.05153   0.06699    8.04023-160.00000   0.00010   329  330  331     13
   331  -0.12090   1.54408   0.06090   0.06699    8.04023-140.00000   0.00010   330  331  332     13
   332  -0.16289   1.49404   0.07027   0.06699    8.04023-120.00000   0.00010   331  332  333     13
   333  -0.18523   1.43266   0.07964   0.06699    8.04023-100.00000   0.00010   332  333  334     13
   334  -0.18523   1.36734   0.08901   0.06699    8.04023 -80.00000   0.00010   333  334  335     13
   335  -0.16289   1.30596   0.09838   0.06699    8.04023 -60.00000   0.00010   334  335  336     13
   336  -0.12090   1.25592   0.10775   0.06699    8.04023 -40.00000   0.00010   335  336  337     13
   337  -0.06433   1.22326   0.11712   0.06699    8.04023 -20.00000   0.00010   336  337  338     13
   338   0.00000   1.21192   0.12649   0.06699    8.04023   0.00000   0.00010   337  338  339     13
   339   0.06433   1.22326   0.13586   0.06699    8.04023  20.00000   0.00010   338  339  340     13
   340   0.12090   1.25592   0.14523   0.06699    8.04023  39.99999   0.00010   339  340  341     13
   341   0.16289   1.30596   0.15459   0.06699    8.04023  59.99999   0.00010   340  341  342     13
   342   0.18523   1.36734   0.16396   0.06699    8.04023  79.99999   0.00010   341  342  343     13
   343   0.18523   1.43266   0.17333   0.06699    8.04023  99.99999   0.00010   342  343  344     13
   344   0.16289   1.49404   0.18270   0.06699    8.04023 119.99999   0.00010   343  344  345     13
   345   0.12090   1.54408   0.19207   0.06699    8.04023 139.99999   0.00010   344  345  346     13
   346   0.06433   1.57674   0.20144   0.06699    8.04023 159.99999   0.00010   345  346  347     13
   347   0.00000   1.58808   0.21081   0.06699    8.04023 179.99999   0.00010   346  347  348     13
   348  -0.06433   1.57674   0.22018   0.06699    8.04023-160.00001   0.00010   347  348  349     13
   349  -0.12090   1.54408   0.22955   0.06699    8.04023-140.00001   0.00010   348  349  350     13
   350  -0.16289   1.49404   0.23892   0.06699    8.04023-120.00001   0.00010   349  350  351     13
   351  -0.18523   1.43266   0.24829   0.06699    8.04023-100.00001   0.00010   350  351  352     13
   352  -0.18523   1.36734   0.25766   0.06699    8.04023 -80.00001   0.00010   351  352  353     13
   353  -0.16289   1.30596   0.26703   0.06699    8.04023 -60.00001   0.00010   352  353  354     13
   354  -0.12090   1.25592   0.27640   0.06699    8.04023 -40.00001   0.00010   353  354  355     13
   355  -0.06433   1.22326   0.28577   0.06699    8.04023 -20.00001   0.00010   354  355  356     13
   356   0.00000   1.21192   0.29514   0.06699    8.04023  -0.00001   0.00010   355  356  357     13
   357   0.06433   1.22326   0.30451   0.06699    8.04023  19.99999   0.00010   356  357  358     13
   358   0.12090   1.25592   0.31387   0.06699    8.04023  39.99999   0.00010   357  358  359     13
   359   0.16289   1.30596   0.32324   0.06699    8.04023  59.99999   0.00010   358  359  360     13
   360   0.18523   1.36734   0.33261   0.06699    8.04023  79.99999   0.00010   359  360  361     13
   361   0.18523   1.43266   0.34469   0.06796   12.56167 100.00000   0.00010   360  361  362     14
   362   0.16289   1.49404   0.35947   0.06796   12.56167 120.00000   0.00010   361  362  363     14
   363   0.12090   1.54408   0.37425   0.06796   12.56167 140.00000   0.00010   362  363  364     14
   364   0.06433   1.57674   0.38903   0.06796   12.56167 160.00000   0.00010   363  364  365     14
   365   0.00000   1.58808   0.40381   0.06796   12.56167 180.00000   0.00010   364  365  366     14
   366  -0.06433   1.57674   0.41859   0.06796   12.56167-160.00000   0.00010   365  366  367     14
   367  -0.12090   1.54408   0.43337   0.06796   12.56167-140.00000   0.00010   366  367  368     14
   368  -0.16289   1.49404   0.44815   0.06796   12.56167-120.00000   0.00010   367  368  369     14
   369  -0.18523   1.43266   0.46292   0.06796   12.56167-100.00000   0.00010   368  369  370     14
   370  -0.18523   1.36734   0.47770   0.06796   12.56167 -80.00000   0.00010   369  370  371     14
   371  -0.16289   1.30596   0.49248   0.06796   12.56167 -60.00000   0.00010   370  371  372     14
   372  -0.12090   1.25592   0.50726   0.06796   12.56167 -40.00000   0.00010   371  372  373     14
   373  -0.06433   1.22326   0.52204   0.06796   12.56167 -20.00000   0.00010   372  373  374     14
   374   0.00000   1.21192   0.53682   0.06796   12.56167   0.00000   0.00010   373  374  375     14
   375   0.06433   1.22326   0.55160   0.06796   12.56167  20.00000   0.00010   374  375  376     14
   376   0.12090   1.25592   0.56638   0.06796   12.56167  39.99999   0.00010   375  376  377     14
   377   0.16289   1.30596   0.58116   0.06796   12.56167  59.99999   0.00010   376  377  378     14
   378   0.18523   1.36734   0.59594   0.06796   12.56167  79.99999   0.00010   377  378    0     14
   379   0.88523   1.43266   0.00468   0.06699    8.04023 100.00000   0.00010   379  379  380     15
   380   0.86289   1.49404   0.01405   0.06699    8.04023 120.00000   0.00010   379  380  381     15
   381   0.82090   1.54408   0.02342   0.06699    8.04023 140.00000   0.00010   380  381  382     15
   382   0.76433   1.57674   0.03279   0.06699    8.04023 160.00000   0.00010   381  382  383     15
   383   0.70000   1.58808   0.04216   0.06699    8.04023 180.00000   0.00010   382  383  384     15
   384   0.63567   1.57674   0.05153   0.06699    8.04023-160.00000   0.00010   383  384  385     15
   385   0.57910   1.54408   0.06090   0.06699    8.04023-140.00000   0.00010   384  385  386     15
   386   0.53711   1.49404   0.07027   0.06699    8.04023-120.00000   0.00010   385  386  387     15
   387   0.51477   1.43266   0.07964   0.06699    8.04023-100.00000   0.00010   386  387  388     15
   388   0.51477   1.36734   0.08901   0.06699    8.04023 -80.00000   0.00010   387  388  389     15
   389   0.53711   1.30596   0.09838   0.06699    8.04023 -60.00000   0.00010   388  389  390     15
   390   0.57910   1.25592   0.10775   0.06699    8.04023 -40.00000   0.00010   389  390  391     15
   391   0.63567   1.22326   0.11712   0.06699    8.04023 -20.00000   0.00010   390  391  392     15
   392   0.70000   1.21192   0.12649   0.06699    8.04023   0.00000   0.00010   391  392  393     15
   393   0.76433   1.22326   0.13586   0.06699    8.04023  20.00000   0.00010   392  393  394     15
   394   0.82090   1.25592   0.14523   0.06699    8.04023  39.99999   0.00010   393  394  395     15
   395   0.86289   1.30596   0.15459   0.06699    8.04023  59.99999   0.00010   394  395  396     15
   396   0.88523   1.36734   0.16396   0.06699    8.04023  79.99999   0.00010   395  396  397     15
   397   0.88523   1.43266   0.17333   0.06699    8.04023  99.99999   0.00010   396  397  398     15
   398   0.86289   1.49404   0.18270   0.06699    8.04023 119.99999   0.00010   397  398  399     15
   399   0.82090   1.54408   0.19207   0.06699    8.04023 139.99999   0.00010   398  399  400     15
   400   0.76433   1.57674   0.20144   0.06699    8.04023 159.99999   0.00010   399  400  401     15
   401   0.70000   1.58808   0.21081   0.06699    8.04023 179.99999   0.00010   400  401  402     15
   402   0.63567   1.57674   0.22018   0.06699    8.04023-160.00001   0.00010   401  402  403     15
   403   0.57910   1.54408   0.22955   0.06699    8.04023-140.00001   0.00010   402  403  404     15
   404   0.53711   1.49404   0.23892   0.06699    8.04023-120.00001   0.00010   403  404  405     15
   405   0.51477   1.43266   0.24829   0.06699    8.04023-100.00001   0.00010   404  405  406     15
   406   0.51477   1.36734   0.25766   0.06699    8.04023 -80.00001   0.00010   405  406  407     15
   407   0.53711   1.30596   0.26703   0.06699    8.04023 -60.00001   0.00010   406  407  408     15
   408   0.57910   1.25592   0.27640   0.06699    8.04023 -40.00001   0.00010   407  408  409     15
   409   0.63567   1.22326   0.28577   0.06699    8.04023 -20.00001   0.00010   408  409  410     15
   410   0.70000   1.21192   0.29514   0.06699    8.04023  -0.00001   0.00010   409  410  411     15
   411   0.76433   1.22326   0.30451   0.06699    8.04023  19.99999   0.00010   410  411  412     15
   412   0.82090   1.25592   0.31387   0.06699    8.04023  39.99999   0.00010   411  412  413     15
   413   0.86289   1.30596   0.32324   0.06699    8.04023  59.99999   0.00010   412  413  414     15
   414   0.88523   1.36734   0.33261   0.06699    8.04023  79.99999   0.00010   413  414  415     15
   415   0.88523   1.43266   0.34469   0.06796   12.56167 100.00000   0.00010   414  415  416     16
   416   0.86289   1.49404   0.35947   0.06796   12.56167 120.00000   0.00010   415  416  417     16
   417   0.82090   1.54408   0.37425   0.06796   12.56167 140.00000   0.00010   416  417  418     16
   418   0.76433   1.57674   0.38903   0.06796   12.56167 160.00000   0.00010   417  418  419     16
   419   0.70000   1.58808   0.40381   0.06796   12.56167 180.00000   0.00010   418  419  420     16
   420   0.63567   1.57674   0.41859   0.06796   12.56167-160.00000   0.00010   419  420  421     16
   421   0.57910   1.54408   0.43337   0.06796   12.56167-140.00000   0.00010   420  421  422     16
   422   0.53711   1.49404   0.44815   0.06796   12.56167-120.00000   0.00010   421  422  423     16
   423   0.51477   1.43266   0.46292   0.06796   12.56167-100.00000   0.00010   422  423  424     16
   424   0.51477   1.36734   0.47770   0.06796   12.56167 -80.00000   0.00010   423  424  425     16
   425   0.53711   1.30596   0.49248   0.06796   12.56167 -60.00000   0.00010   424  425  426     16
   426   0.57910   1.25592   0.50726   0.06796   12.56167 -40.00000   0.00010   425  426  427     16
   427   0.63567   1.22326   0.52204   0.06796   12.56167 -20.00000   0.00010   426  427  428     16
   428   0.70000   1.21192   0.53682   0.06796   12.56167   0.00000   0.00010   427  428  429     16
   429   0.76433   1.22326   0.55160   0.06796   12.56167  20.00000   0.00010   428  429  430     16
   430   0.82090   1.25592   0.56638   0.06796   12.56167  39.99999   0.00010   429  430  431     16
   431   0.86289   1.30596   0.58116   0.06796   12.56167  59.99999   0.00010   430  431  432     16
   432   0.88523   1.36734   0.59594   0.06796   12.56167  79.99999   0.00010   431  432    0     16
   433   1.58523   1.43266   0.00468   0.06699    8.04023 100.00000   0.00010   433  433  434     17
   434   1.56289   1.49404   0.01405   0.06699    8.04023 120.00000   0.00010   433  434  435     17
   435   1.52090   1.54408   0.02342   0.06699    8.04023 140.00000   0.00010   434  435  436     17
   436   1.46433   1.57674   0.03279   0.06699    8.04023 160.00000   0.00010   435  436  437     17
   437   1.40000   1.58808   0.04216   0.06699    8.04023 180.00000   0.00010   436  437  438     17
   438   1.33567   1.57674   0.05153   0.06699    8.04023-160.00000   0.00010   437  438  439     17
   439   1.27910   1.54408   0.06090   0.06699    8.04023-140.00000   0.00010   438  439  440     17
   440   1.23711   1.49404   0.07027   0.06699    8.04023-120.00000   0.00010   439  440  441     17
   441   1.21477   1.43266   0.07964   0.06699    8.04023-100.00000   0.00010   440  441  442     17
   442   1.21477   1.36734   0.08901   0.06699    8.04023 -80.00000   0.00010   441  442  443     17
   443   1.23711   1.30596   0.09838   0.06699    8.04023 -60.00000   0.00010   442  443  444     17
   444   1.27910   1.25592   0.10775   0.06699    8.04023 -40.00000   0.00010   443  444  445     17
   445   1.33567   1.22326   0.11712   0.06699    8.04023 -20.00000   0.00010   444  445  446     17
   446   1.40000   1.21192   0.12649   0.06699    8.04023   0.00000   0.00010   445  446  447     17
   447   1.46433   1.22326   0.13586   0.06699    8.04023  20.00000   0.00010   446  447  448     17
   448   1.52090   1.25592   0.14523   0.06699    8.04023  39.99999   0.00010   447  448  449     17
   449   1.56289   1.30596   0.15459   0.06699    8.04023  59.99999   0.00010   448  449  450     17
   450   1.58523   1.36734   0.16396   0.06699    8.04023  79.99999   0.00010   449  450  451     17
   451   1.58523   1.43266   0.17333   0.06699    8.04023  99.99999   0.00010   450  451  452     17
   452   1.56289   1.49404   0.18270   0.06699    8.04023 119.99999   0.00010   451  452  453     17
   453   1.52090   1.54408   0.19207   0.06699    8.04023 139.99999   0.00010   452  453  454     17
   454   1.46433   1.57674   0.20144   0.06699    8.04023 159.99999   0.00010   453  454  455     17
   455   1.40000   1.58808   0.21081   0.06699    8.04023 179.99999   0.00010   454  455  456     17
   456   1.33567   1.57674   0.22018   0.06699    8.04023-160.00001   0.00010   455  456  457     17
   457   1.27910   1.54408   0.22955   0.06699    8.04023-140.00001   0.00010   456  457  458     17
   458   1.23711   1.49404   0.23892   0.06699    8.04023-120.00001   0.00010   457  458  459     17
   459   1.21477   1.43266   0.24829   0.06699    8.04023-100.00001   0.00010   458  459  460     17
   460   1.21477   1.36734   0.25766   0.06699    8.04023 -80.00001   0.00010   459  460  461     17
   461   1.23711   1.30596   0.26703   0.06699    8.04023 -60.00001   0.00010   460  461  462     17
   462   1.27910   1.25592   0.27640   0.06699    8.04023 -40.00001   0.00010   461  462  463     17
   463   1.33567   1.22326   0.28577   0.06699    8.04023 -20.00001   0.00010   462  463  464     17
   464   1.40000   1.21192   0.29514   0.06699    8.04023  -0.00001   0.00010   463  464  465     17
   465   1.46433   1.22326   0.30451   0.06699    8.04023  19.99999   0.00010   464  465  466     17
   466   1.52090   1.25592   0.31387   0.06699    8.04023  39.99999   0.00010   465  466  467     17
   467   1.56289   1.30596   0.32324   0.06699    8.04023  59.99999   0.00010   466  467  468     17
   468   1.58523   1.36734   0.33261   0.06699    8.04023  79.99999   0.00010   467  468  469     17
   469   1.58523   1.43266   0.34469   0.06796   12.56167 100.00000   0.00010   468  469  470     18
   470   1.56289   1.49404   0.35947   0.06796   12.56167 120.00000   0.00010   469  470  471     18
   471   1.52090   1.54408   0.37425   0.06796   12.56167 140.00000   0.00010   470  471  472     18
   472   1.46433   1.57674   0.38903   0.06796   12.56167 160.00000   0.00010   471  472  473     18
   473   1.40000   1.58808   0.40381   0.06796   12.56167 180.00000   0.00010   472  473  474     18
   474   1.33567   1.57674   0.41859   0.06796   12.56167-160.00000   0.00010   473  474  475     18
   475   1.27910   1.54408   0.43337   0.06796   12.56167-140.00000   0.00010   474  475  476     18
   476   1.23711   1.49404   0.44815   0.06796   12.56167-120.00000   0.00010   475  476  477     18
   477   1.21477   1.43266   0.46292   0.06796   12.56167-100.00000   0.00010   476  477  478     18
   478   1.21477   1.36734   0.47770   0.06796   12.56167 -80.00000   0.00010   477  478  479     18
   479   1.23711   1.30596   0.49248   0.06796   12.56167 -60.00000   0.00010   478  479  480     18
   480   1.27910   1.25592   0.50726   0.06796   12.56167 -40.00000   0.00010   479  480  481     18
   481   1.33567   1.22326   0.52204   0.06796   12.56167 -20.00000   0.00010   480  481  482     18
   482   1.40000   1.21192   0.53682   0.06796   12.56167   0.00000   0.00010   481  482  483     18
   483   1.46433   1.22326   0.55160   0.06796   12.56167  20.00000   0.00010   482  483  484     18
   484   1.52090   1.25592   0.56638   0.06796   12.56167  39.99999   0.00010   483  484  485     18
   485   1.56289   1.30596   0.58116   0.06796   12.56167  59.99999   0.00010   484  485  486     18
   486   1.58523   1.36734   0.59594   0.06796   12.56167  79.99999   0.00010   485  486    0     18






 ***** DATA CARD NO.  1   GN   1     0     0     0  0.00000E+00  0.00000E+00  0.00000E+00  0.00000E+00  0.00000E+00  0.00000E+00
 ***** DATA CARD NO.  2   EK   0     0     0     0  0.00000E+00  0.00000E+00  0.00000E+00  0.00000E+00  0.00000E+00  0.00000E+00
 ***** DATA CARD NO.  3   EX   0     1     2     0  1.00000E+00  0.00000E+00  0.00000E+00  0.00000E+00  0.00000E+00  0.00000E+00
 ***** DATA CARD NO.  4   EX   0     3     2     0  1.00000E+00  0.00000E+00  0.00000E+00  0.00000E+00  0.00000E+00  0.00000E+00
 ***** DATA CARD NO.  5   EX   0     5     2     0  1.00000E+00  0.00000E+00  0.00000E+00  0.00000E+00  0.00000E+00  0.00000E+00
 ***** DATA CARD NO.  6   EX   0     7     2     0  1.00000E+00  0.00000E+00  0.00000E+00  0.00000E+00  0.00000E+00  0.00000E+00
 ***** DATA CARD NO.  7   EX   0     9     2     0  1.00000E+00  0.00000E+00  0.00000E+00  0.00000E+00  0.00000E+00  0.00000E+00
 ***** DATA CARD NO.  8   EX   0    11     2     0  1.00000E+00  0.00000E+00  0.00000E+00  0.00000E+00  0.00000E+00  0.00000E+00
 ***** DATA CARD NO.  9   EX   0    13     2     0  1.00000E+00  0.00000E+00  0.00000E+00  0.00000E+00  0.00000E+00  0.00000E+00
 ***** DATA CARD NO. 10   EX   0    15     2     0  1.00000E+00  0.00000E+00  0.00000E+00  0.00000E+00  0.00000E+00  0.00000E+00
 ***** DATA CARD NO. 11   EX   0    17     2     0  1.00000E+00  0.00000E+00  0.00000E+00  0.00000E+00  0.00000E+00  0.00000E+00
 ***** DATA CARD NO. 12   FR   0     0     0     0  3.00000E+02  0.00000E+00  0.00000E+00  0.00000E+00  0.00000E+00  0.00000E+00
 ***** DATA CARD NO. 13   RP   0    91     1  1000 -9.00000E+01  0.00000E+00  2.00000E+00  1.00000E+00  0.00000E+00  0.00000E+00




                                 - - - - - - FREQUENCY - - - - - -

                                    FREQUENCY= 3.0000E+02 MHZ
                                    WAVELENGTH= 9.9933E-01 METERS




                    APPROXIMATE INTEGRATION EMPLOYED FOR SEGMENTS MORE THAN   1.000 WAVELENGTHS APART

                    THE EXTENDED THIN WIRE KERNEL WILL BE USED



                               - - - STRUCTURE IMPEDANCE LOADING - - -

                                   THIS STRUCTURE IS NOT LOADED



                                  - - - ANTENNA ENVIRONMENT - - -

                                          PERFECT GROUND



                                - - - MATRIX TIMING - - -

                        FILL=   45.760 SEC.,  FACTOR=  127.640 SEC.



                                          - - - ANTENNA INPUT PARAMETERS - - -

   TAG   SEG.    VOLTAGE (VOLTS)         CURRENT (AMPS)         IMPEDANCE (OHMS)        ADMITTANCE (MHOS)      POWER
   NO.   NO.    REAL        IMAG.       REAL        IMAG.       REAL        IMAG.       REAL        IMAG.     (WATTS)
     1     2 1.00000E+00 0.00000E+00 2.38964E-03-1.07921E-03 3.47580E+02 1.56974E+02 2.38964E-03-1.07921E-03 1.19482E-03
     3    56 1.00000E+00 0.00000E+00 2.01199E-03-1.18756E-03 3.68604E+02 2.17566E+02 2.01199E-03-1.18756E-03 1.00600E-03
     5   110 1.00000E+00 0.00000E+00 2.33861E-03-1.19316E-03 3.39286E+02 1.73103E+02 2.33861E-03-1.19316E-03 1.16931E-03
     7   164 1.00000E+00 0.00000E+00 2.33576E-03-1.37123E-03 3.18395E+02 1.86916E+02 2.33576E-03-1.37123E-03 1.16788E-03
     9   218 1.00000E+00 0.00000E+00 1.83046E-03-1.24950E-03 3.72662E+02 2.54386E+02 1.83046E-03-1.24950E-03 9.15230E-04
    11   272 1.00000E+00 0.00000E+00 2.39274E-03-1.36016E-03 3.15864E+02 1.79553E+02 2.39274E-03-1.36016E-03 1.19637E-03
    13   326 1.00000E+00 0.00000E+00 2.36850E-03-1.27794E-03 3.27009E+02 1.76440E+02 2.36850E-03-1.27794E-03 1.18425E-03
    15   380 1.00000E+00 0.00000E+00 2.06243E-03-1.30635E-03 3.46035E+02 2.19180E+02 2.06243E-03-1.30635E-03 1.03122E-03
    17   434 1.00000E+00 0.00000E+00 2.46704E-03-1.12475E-03 3.35590E+02 1.53000E+02 2.46704E-03-1.12475E-03 1.23352E-03



                             - - - CURRENTS AND LOCATION - - -

                                 DISTANCES IN WAVELENGTHS


  SEG.  TAG    COORD. OF SEG. CENTER     SEG.            - - - CURRENT (AMPS) - - -
  NO.   NO.     X        Y        Z      LENGTH     REAL        IMAG.       MAG.        PHASE
     1    1   0.1854   0.0327   0.0047  0.06703   2.7753E-03 -1.1052E-03  2.9873E-03  -21.713
     2    1   0.1630   0.0941   0.0141  0.06703   2.3896E-03 -1.0792E-03  2.6220E-03  -24.305
     3    1   0.1210   0.1442   0.0234  0.06703   1.6694E-03 -1.7663E-03  2.4304E-03  -46.616
     4    1   0.0644   0.1769   0.0328  0.06703   7.2632E-04 -2.2564E-03  2.3704E-03  -72.157
     5    1   0.0000   0.1882   0.0422  0.06703  -2.9030E-04 -2.3453E-03  2.3632E-03  -97.056
     6    1  -0.0644   0.1769   0.0516  0.06703  -1.2199E-03 -2.0418E-03  2.3785E-03 -120.858
     7    1  -0.1210   0.1442   0.0609  0.06703  -1.9171E-03 -1.4096E-03  2.3795E-03 -143.674
     8    1  -0.1630   0.0941   0.0703  0.06703  -2.2754E-03 -5.6012E-04  2.3433E-03 -166.171
     9    1  -0.1854   0.0327   0.0797  0.06703  -2.2450E-03  3.6419E-04  2.2743E-03  170.785
    10    1  -0.1854  -0.0327   0.0891  0.06703  -1.8399E-03  1.2117E-03  2.2031E-03  146.632
    11    1  -0.1630  -0.0941   0.0984  0.06703  -1.1358E-03  1.8455E-03  2.1670E-03  121.609
    12    1  -0.1210  -0.1442   0.1078  0.06703  -2.5681E-04  2.1655E-03  2.1807E-03   96.763
    13    1  -0.0644  -0.1769   0.1172  0.06703   6.4536E-04  2.1251E-03  2.2210E-03   73.108
    14    1   0.0000  -0.1882   0.1266  0.06703   1.4177E-03  1.7388E-03  2.2435E-03   50.808
    15    1   0.0644  -0.1769   0.1359  0.06703   1.9321E-03  1.0785E-03  2.2127E-03   29.170
    16    1   0.1210  -0.1442   0.1453  0.06703   2.1070E-03  2.6031E-04  2.1231E-03    7.043
    17    1   0.1630  -0.0941   0.1547  0.06703   1.9220E-03 -5.7651E-04  2.0066E-03  -16.697
    18    1   0.1854  -0.0327   0.1641  0.06703   1.4213E-03 -1.2937E-03  1.9219E-03  -42.311
    19    1   0.1854   0.0327   0.1734  0.06703   7.0636E-04 -1.7769E-03  1.9122E-03  -68.321
    20    1   0.1630   0.0941   0.1828  0.06703  -8.5488E-05 -1.9545E-03  1.9564E-03  -92.504
    21    1   0.1210   0.1442   0.1922  0.06703  -8.1155E-04 -1.8114E-03  1.9849E-03 -114.133
    22    1   0.0644   0.1769   0.2016  0.06703  -1.3510E-03 -1.3897E-03  1.9382E-03 -134.192
    23    1   0.0000   0.1882   0.2110  0.06703  -1.6238E-03 -7.7596E-04  1.7997E-03 -154.458
    24    1  -0.0644   0.1769   0.2203  0.06703  -1.5995E-03 -8.2729E-05  1.6016E-03 -177.039
    25    1  -0.1210   0.1442   0.2297  0.06703  -1.2987E-03  5.7395E-04  1.4199E-03  156.157
    26    1  -0.1630   0.0941   0.2391  0.06703  -7.8694E-04  1.0943E-03  1.3479E-03  125.720
    27    1  -0.1854   0.0327   0.2485  0.06703  -1.6183E-04  1.4074E-03  1.4166E-03   96.560
    28    1  -0.1854  -0.0327   0.2578  0.06703   4.6410E-04  1.4775E-03  1.5487E-03   72.562
    29    1  -0.1630  -0.0941   0.2672  0.06703   9.8214E-04  1.3081E-03  1.6357E-03   53.099
    30    1  -0.1210  -0.1442   0.2766  0.06703   1.3053E-03  9.3977E-04  1.6084E-03   35.753
    31    1  -0.0644  -0.1769   0.2860  0.06703   1.3828E-03  4.4416E-04  1.4524E-03   17.807
    32    1   0.0000  -0.1882   0.2953  0.06703   1.2088E-03 -8.8938E-05  1.2121E-03   -4.208
    33    1   0.0644  -0.1769   0.3047  0.06703   8.2313E-04 -5.6745E-04  9.9977E-04  -34.581
    34    1   0.1210  -0.1442   0.3141  0.06703   3.0373E-04 -9.1400E-04  9.6314E-04  -71.618
    35    1   0.1630  -0.0941   0.3235  0.06703  -2.4736E-04 -1.0801E-03  1.1080E-03 -102.899
    36    1   0.1854  -0.0327   0.3328  0.06703  -7.2215E-04 -1.0541E-03  1.2778E-03 -124.413
    37    2   0.1854   0.0327   0.3449  0.06800  -1.0291E-03 -8.6054E-04  1.3415E-03 -140.099
    38    2   0.1630   0.0941   0.3597  0.06800  -1.1080E-03 -5.5456E-04  1.2391E-03 -153.412
    39    2   0.1210   0.1442   0.3745  0.06800  -9.4933E-04 -2.1317E-04  9.7297E-04 -167.344
    40    2   0.0644   0.1769   0.3893  0.06800  -5.9938E-04  8.9199E-05  6.0598E-04  171.535
    41    2   0.0000   0.1882   0.4041  0.06800  -1.4400E-04  2.9773E-04  3.3072E-04  115.811
    42    2  -0.0644   0.1769   0.4189  0.06800   3.1387E-04  3.8804E-04  4.9909E-04   51.031
    43    2  -0.1210   0.1442   0.4337  0.06800   6.7888E-04  3.6785E-04  7.7214E-04   28.451
    44    2  -0.1630   0.0941   0.4484  0.06800   8.8295E-04  2.6936E-04  9.2312E-04   16.965
    45    2  -0.1854   0.0327   0.4632  0.06800   8.9573E-04  1.3612E-04  9.0601E-04    8.641
    46    2  -0.1854  -0.0327   0.4780  0.06800   7.2634E-04  1.0578E-05  7.2642E-04    0.834
    47    2  -0.1630  -0.0941   0.4928  0.06800   4.1842E-04 -7.4999E-05  4.2509E-04  -10.162
    48    2  -0.1210  -0.1442   0.5076  0.06800   4.0181E-05 -1.0369E-04  1.1120E-04  -68.818
    49    2  -0.0644  -0.1769   0.5224  0.06800  -3.2893E-04 -7.5597E-05  3.3751E-04 -167.057
    50    2   0.0000  -0.1882   0.5372  0.06800  -6.1318E-04 -6.6250E-06  6.1322E-04 -179.381
    51    2   0.0644  -0.1769   0.5520  0.06800  -7.5486E-04  7.5313E-05  7.5861E-04  174.302
    52    2   0.1210  -0.1442   0.5668  0.06800  -7.2530E-04  1.3635E-04  7.3800E-04  169.353
    53    2   0.1630  -0.0941   0.5815  0.06800  -5.3028E-04  1.4415E-04  5.4952E-04  164.793
    54    2   0.1854  -0.0327   0.5963  0.06800  -2.0343E-04  7.3032E-05  2.1614E-04  160.252
    55    3   0.8858   0.0327   0.0047  0.06703   2.3393E-03 -1.2326E-03  2.6441E-03  -27.786
    56    3   0.8635   0.0941   0.0141  0.06703   2.0120E-03 -1.1876E-03  2.3363E-03  -30.551
    57    3   0.8214   0.1442   0.0234  0.06703   1.4009E-03 -1.8397E-03  2.3124E-03  -52.710
    58    3   0.7648   0.1769   0.0328  0.06703   6.0090E-04 -2.2856E-03  2.3633E-03  -75.270
    59    3   0.7005   0.1882   0.0422  0.06703  -2.6109E-04 -2.3310E-03  2.3456E-03  -96.391
    60    3   0.6361   0.1769   0.0516  0.06703  -1.0476E-03 -1.9941E-03  2.2525E-03 -117.714
    61    3   0.5795   0.1442   0.0609  0.06703  -1.6331E-03 -1.3460E-03  2.1163E-03 -140.504
    62    3   0.5375   0.0941   0.0703  0.06703  -1.9262E-03 -5.0073E-04  1.9902E-03 -165.428
    63    3   0.5151   0.0327   0.0797  0.06703  -1.8856E-03  4.0240E-04  1.9281E-03  167.954
    64    3   0.5151  -0.0327   0.0891  0.06703  -1.5282E-03  1.2192E-03  1.9550E-03  141.416
    65    3   0.5375  -0.0941   0.0984  0.06703  -9.2481E-04  1.8217E-03  2.0430E-03  116.916
    66    3   0.5795  -0.1442   0.1078  0.06703  -1.8468E-04  2.1176E-03  2.1257E-03   94.984
    67    3   0.6361  -0.1769   0.1172  0.06703   5.6497E-04  2.0660E-03  2.1419E-03   74.706
    68    3   0.7005  -0.1882   0.1266  0.06703   1.1990E-03  1.6833E-03  2.0666E-03   54.538
    69    3   0.7648  -0.1769   0.1359  0.06703   1.6137E-03  1.0398E-03  1.9197E-03   32.797
    70    3   0.8214  -0.1442   0.1453  0.06703   1.7433E-03  2.4800E-04  1.7609E-03    8.096
    71    3   0.8635  -0.0941   0.1547  0.06703   1.5726E-03 -5.5799E-04  1.6687E-03  -19.535
    72    3   0.8858  -0.0327   0.1641  0.06703   1.1405E-03 -1.2456E-03  1.6888E-03  -47.524
    73    3   0.8858   0.0327   0.1734  0.06703   5.3380E-04 -1.7062E-03  1.7877E-03  -72.627
    74    3   0.8635   0.0941   0.1828  0.06703  -1.3129E-04 -1.8735E-03  1.8781E-03  -94.009
    75    3   0.8214   0.1442   0.1922  0.06703  -7.3658E-04 -1.7367E-03  1.8864E-03 -112.983
    76    3   0.7648   0.1769   0.2016  0.06703  -1.1838E-03 -1.3411E-03  1.7888E-03 -131.433
    77    3   0.7005   0.1882   0.2110  0.06703  -1.4071E-03 -7.7496E-04  1.6064E-03 -151.157
    78    3   0.6361   0.1769   0.2203  0.06703  -1.3795E-03 -1.4805E-04  1.3874E-03 -173.874
    79    3   0.5795   0.1442   0.2297  0.06703  -1.1142E-03  4.3210E-04  1.1950E-03  158.802
    80    3   0.5375   0.0941   0.2391  0.06703  -6.6433E-04  8.8099E-04  1.1034E-03  127.019
    81    3   0.5151   0.0327   0.2485  0.06703  -1.1550E-04  1.1477E-03  1.1535E-03   95.747
    82    3   0.5151  -0.0327   0.2578  0.06703   4.2886E-04  1.2158E-03  1.2893E-03   70.571
    83    3   0.5375  -0.0941   0.2672  0.06703   8.6824E-04  1.0988E-03  1.4005E-03   51.686
    84    3   0.5795  -0.1442   0.2766  0.06703   1.1275E-03  8.3362E-04  1.4022E-03   36.477
    85    3   0.6361  -0.1769   0.2860  0.06703   1.1700E-03  4.7441E-04  1.2625E-03   22.072
    86    3   0.7005  -0.1882   0.2953  0.06703   9.9902E-04  8.4746E-05  1.0026E-03    4.849
    87    3   0.7648  -0.1769   0.3047  0.06703   6.5401E-04 -2.7159E-04  7.0816E-04  -22.552
    88    3   0.8214  -0.1442   0.3141  0.06703   2.0258E-04 -5.4058E-04  5.7729E-04  -69.457
    89    3   0.8635  -0.0941   0.3235  0.06703  -2.6972E-04 -6.8783E-04  7.3882E-04 -111.412
    90    3   0.8858  -0.0327   0.3328  0.06703  -6.7311E-04 -7.0529E-04  9.7494E-04 -133.663
    91    4   0.8858   0.0327   0.3449  0.06800  -9.3208E-04 -6.1104E-04  1.1145E-03 -146.753
    92    4   0.8635   0.0941   0.3597  0.06800  -9.9892E-04 -4.4398E-04  1.0931E-03 -156.037
    93    4   0.8214   0.1442   0.3745  0.06800  -8.7084E-04 -2.5746E-04  9.0810E-04 -163.530
    94    4   0.7648   0.1769   0.3893  0.06800  -5.9146E-04 -1.0233E-04  6.0024E-04 -170.184
    95    4   0.7005   0.1882   0.4041  0.06800  -2.3253E-04 -1.4145E-05  2.3296E-04 -176.519
    96    4   0.6361   0.1769   0.4189  0.06800   1.2687E-04 -3.9176E-06  1.2693E-04   -1.769
    97    4   0.5795   0.1442   0.4337  0.06800   4.1808E-04 -5.4740E-05  4.2164E-04   -7.459
    98    4   0.5375   0.0941   0.4484  0.06800   5.9375E-04 -1.2689E-04  6.0715E-04  -12.063
    99    4   0.5151   0.0327   0.4632  0.06800   6.3317E-04 -1.7125E-04  6.5592E-04  -15.134
   100    4   0.5151  -0.0327   0.4780  0.06800   5.4373E-04 -1.4744E-04  5.6337E-04  -15.172
   101    4   0.5375  -0.0941   0.4928  0.06800   3.5826E-04 -4.0263E-05  3.6052E-04   -6.412
   102    4   0.5795  -0.1442   0.5076  0.06800   1.2686E-04  1.3393E-04  1.8447E-04   46.552
   103    4   0.6361  -0.1769   0.5224  0.06800  -9.5949E-05  3.3366E-04  3.4718E-04  106.043
   104    4   0.7005  -0.1882   0.5372  0.06800  -2.6390E-04  5.0648E-04  5.7111E-04  117.522
   105    4   0.7648  -0.1769   0.5520  0.06800  -3.4725E-04  6.0359E-04  6.9636E-04  119.912
   106    4   0.8214  -0.1442   0.5668  0.06800  -3.3621E-04  5.9027E-04  6.7931E-04  119.666
   107    4   0.8635  -0.0941   0.5815  0.06800  -2.4118E-04  4.5074E-04  5.1121E-04  118.150
   108    4   0.8858  -0.0327   0.5963  0.06800  -8.8751E-05  1.8411E-04  2.0438E-04  115.737
   109    5   1.5863   0.0327   0.0047  0.06703   2.7152E-03 -1.2340E-03  2.9824E-03  -24.440
   110    5   1.5639   0.0941   0.0141  0.06703   2.3386E-03 -1.1932E-03  2.6254E-03  -27.031
   111    5   1.5219   0.1442   0.0234  0.06703   1.6345E-03 -1.8527E-03  2.4707E-03  -48.580
   112    5   1.4653   0.1769   0.0328  0.06703   7.1163E-04 -2.3070E-03  2.4143E-03  -72.857
   113    5   1.4009   0.1882   0.0422  0.06703  -2.8361E-04 -2.3586E-03  2.3756E-03  -96.857
   114    5   1.3366   0.1769   0.0516  0.06703  -1.1931E-03 -2.0237E-03  2.3492E-03 -120.522
   115    5   1.2800   0.1442   0.0609  0.06703  -1.8734E-03 -1.3722E-03  2.3222E-03 -143.778
   116    5   1.2379   0.0941   0.0703  0.06703  -2.2203E-03 -5.1889E-04  2.2802E-03 -166.846
   117    5   1.2156   0.0327   0.0797  0.06703  -2.1863E-03  3.9523E-04  2.2218E-03  169.753
   118    5   1.2156  -0.0327   0.0891  0.06703  -1.7888E-03  1.2235E-03  2.1672E-03  145.628
   119    5   1.2379  -0.0941   0.0984  0.06703  -1.1059E-03  1.8353E-03  2.1427E-03  121.073
   120    5   1.2800  -0.1442   0.1078  0.06703  -2.6054E-04  2.1360E-03  2.1519E-03   96.954
   121    5   1.3366  -0.1769   0.1172  0.06703   6.0245E-04  2.0830E-03  2.1683E-03   73.869
   122    5   1.4009  -0.1882   0.1266  0.06703   1.3398E-03  1.6912E-03  2.1576E-03   51.612
   123    5   1.4653  -0.1769   0.1359  0.06703   1.8328E-03  1.0306E-03  2.1027E-03   29.349
   124    5   1.5219  -0.1442   0.1453  0.06703   2.0064E-03  2.1425E-04  2.0178E-03    6.095
   125    5   1.5639  -0.0941   0.1547  0.06703   1.8414E-03 -6.2068E-04  1.9432E-03  -18.627
   126    5   1.5863  -0.0327   0.1641  0.06703   1.3771E-03 -1.3359E-03  1.9186E-03  -44.131
   127    5   1.5863   0.0327   0.1734  0.06703   7.0297E-04 -1.8156E-03  1.9470E-03  -68.835
   128    5   1.5639   0.0941   0.1828  0.06703  -5.7869E-05 -1.9864E-03  1.9872E-03  -91.669
   129    5   1.5219   0.1442   0.1922  0.06703  -7.7151E-04 -1.8308E-03  1.9867E-03 -112.851
   130    5   1.4653   0.1769   0.2016  0.06703  -1.3174E-03 -1.3907E-03  1.9156E-03 -133.450
   131    5   1.4009   0.1882   0.2110  0.06703  -1.6093E-03 -7.5813E-04  1.7789E-03 -154.775
   132    5   1.3366   0.1769   0.2203  0.06703  -1.6091E-03 -5.5020E-05  1.6100E-03 -178.042
   133    5   1.2800   0.1442   0.2297  0.06703  -1.3308E-03  5.9496E-04  1.4577E-03  155.912
   134    5   1.2379   0.0941   0.2391  0.06703  -8.3656E-04  1.0916E-03  1.3753E-03  127.464
   135    5   1.2156   0.0327   0.2485  0.06703  -2.2417E-04  1.3726E-03  1.3908E-03   99.276
   136    5   1.2156  -0.0327   0.2578  0.06703   3.9020E-04  1.4161E-03  1.4689E-03   74.594
   137    5   1.2379  -0.0941   0.2672  0.06703   8.9401E-04  1.2374E-03  1.5266E-03   54.153
   138    5   1.2800  -0.1442   0.2766  0.06703   1.2013E-03  8.8268E-04  1.4907E-03   36.307
   139    5   1.3366  -0.1769   0.2860  0.06703   1.2679E-03  4.2035E-04  1.3358E-03   18.342
   140    5   1.4009  -0.1882   0.2953  0.06703   1.0956E-03 -7.0087E-05  1.0978E-03   -3.660
   141    5   1.4653  -0.1769   0.3047  0.06703   7.2828E-04 -5.1055E-04  8.8941E-04  -35.032
   142    5   1.5219  -0.1442   0.3141  0.06703   2.4277E-04 -8.3588E-04  8.7042E-04  -73.805
   143    5   1.5639  -0.0941   0.3235  0.06703  -2.6525E-04 -1.0034E-03  1.0379E-03 -104.807
   144    5   1.5863  -0.0327   0.3328  0.06703  -6.9863E-04 -9.9941E-04  1.2194E-03 -124.955
   145    6   1.5863   0.0327   0.3449  0.06800  -9.7875E-04 -8.3918E-04  1.2893E-03 -139.390
   146    6   1.5639   0.0941   0.3597  0.06800  -1.0558E-03 -5.6552E-04  1.1978E-03 -151.826
   147    6   1.5219   0.1442   0.3745  0.06800  -9.2065E-04 -2.4320E-04  9.5223E-04 -165.203
   148    6   1.4653   0.1769   0.3893  0.06800  -6.1029E-04  5.8171E-05  6.1306E-04  174.555
   149    6   1.4009   0.1882   0.4041  0.06800  -1.9838E-04  2.7865E-04  3.4205E-04  125.449
   150    6   1.3366   0.1769   0.4189  0.06800   2.2170E-04  3.8298E-04  4.4253E-04   59.934
   151    6   1.2800   0.1442   0.4337  0.06800   5.5949E-04  3.7025E-04  6.7091E-04   33.495
   152    6   1.2379   0.0941   0.4484  0.06800   7.4846E-04  2.7231E-04  7.9646E-04   19.993
   153    6   1.2156   0.0327   0.4632  0.06800   7.5885E-04  1.4110E-04  7.7185E-04   10.533
   154    6   1.2156  -0.0327   0.4780  0.06800   6.0038E-04  2.9880E-05  6.0113E-04    2.849
   155    6   1.2379  -0.0941   0.4928  0.06800   3.1699E-04 -2.4345E-05  3.1792E-04   -4.392
   156    6   1.2800  -0.1442   0.5076  0.06800  -2.4276E-05 -9.9681E-06  2.6243E-05 -157.676
   157    6   1.3366  -0.1769   0.5224  0.06800  -3.4815E-04  6.0191E-05  3.5331E-04  170.191
   158    6   1.4009  -0.1882   0.5372  0.06800  -5.8702E-04  1.5582E-04  6.0735E-04  165.134
   159    6   1.4653  -0.1769   0.5520  0.06800  -6.9384E-04  2.3869E-04  7.3375E-04  161.016
   160    6   1.5219  -0.1442   0.5668  0.06800  -6.4991E-04  2.7264E-04  7.0478E-04  157.242
   161    6   1.5639  -0.0941   0.5815  0.06800  -4.6659E-04  2.3177E-04  5.2098E-04  153.584
   162    6   1.5863  -0.0327   0.5963  0.06800  -1.7670E-04  1.0243E-04  2.0424E-04  149.901
   163    7   0.1854   0.7331   0.0047  0.06703   2.7149E-03 -1.4436E-03  3.0748E-03  -28.001
   164    7   0.1630   0.7946   0.0141  0.06703   2.3358E-03 -1.3712E-03  2.7085E-03  -30.415
   165    7   0.1210   0.8446   0.0234  0.06703   1.6290E-03 -1.9708E-03  2.5569E-03  -50.424
   166    7   0.0644   0.8773   0.0328  0.06703   7.0490E-04 -2.3449E-03  2.4486E-03  -73.269
   167    7   0.0000   0.8887   0.0422  0.06703  -2.9005E-04 -2.3077E-03  2.3258E-03  -97.164
   168    7  -0.0644   0.8773   0.0516  0.06703  -1.1988E-03 -1.8879E-03  2.2363E-03 -122.414
   169    7  -0.1210   0.8446   0.0609  0.06703  -1.8792E-03 -1.1681E-03  2.2126E-03 -148.134
   170    7  -0.1630   0.7946   0.0703  0.06703  -2.2275E-03 -2.7399E-04  2.2443E-03 -172.988
   171    7  -0.1854   0.7331   0.0797  0.06703  -2.1954E-03  6.4534E-04  2.2883E-03  163.619
   172    7  -0.1854   0.6678   0.0891  0.06703  -1.7973E-03  1.4401E-03  2.3031E-03  141.296
   173    7  -0.1630   0.6064   0.0984  0.06703  -1.1086E-03  1.9836E-03  2.2724E-03  119.200
   174    7  -0.1210   0.5563   0.1078  0.06703  -2.5233E-04  2.1928E-03  2.2073E-03   96.564
   175    7  -0.0644   0.5236   0.1172  0.06703   6.2234E-04  2.0428E-03  2.1355E-03   73.057
   176    7   0.0000   0.5123   0.1266  0.06703   1.3670E-03  1.5719E-03  2.0832E-03   48.989
   177    7   0.0644   0.5236   0.1359  0.06703   1.8594E-03  8.7320E-04  2.0542E-03   25.156
   178    7   0.1210   0.5563   0.1453  0.06703   2.0238E-03  7.2966E-05  2.0251E-03    2.065
   179    7   0.1630   0.6064   0.1547  0.06703   1.8429E-03 -6.9605E-04  1.9700E-03  -20.691
   180    7   0.1854   0.6678   0.1641  0.06703   1.3595E-03 -1.3161E-03  1.8922E-03  -44.070
   181    7   0.1854   0.7331   0.1734  0.06703   6.6841E-04 -1.6983E-03  1.8251E-03  -68.517
   182    7   0.1630   0.7946   0.1828  0.06703  -1.0132E-04 -1.7942E-03  1.7970E-03  -93.232
   183    7   0.1210   0.8446   0.1922  0.06703  -8.1296E-04 -1.6036E-03  1.7979E-03 -116.883
   184    7   0.0644   0.8773   0.2016  0.06703  -1.3480E-03 -1.1754E-03  1.7885E-03 -138.914
   185    7   0.0000   0.8887   0.2110  0.06703  -1.6257E-03 -5.9557E-04  1.7314E-03 -159.880
   186    7  -0.0644   0.8773   0.2203  0.06703  -1.6130E-03  3.0077E-05  1.6133E-03  178.932
   187    7  -0.1210   0.8446   0.2297  0.06703  -1.3265E-03  5.9741E-04  1.4548E-03  155.754
   188    7  -0.1630   0.7946   0.2391  0.06703  -8.2641E-04  1.0226E-03  1.3148E-03  128.942
   189    7  -0.1854   0.7331   0.2485  0.06703  -2.0567E-04  1.2524E-03  1.2691E-03   99.326
   190    7  -0.1854   0.6678   0.2578  0.06703   4.2581E-04  1.2674E-03  1.3370E-03   71.430
   191    7  -0.1630   0.6064   0.2672  0.06703   9.5796E-04  1.0836E-03  1.4463E-03   48.521
   192    7  -0.1210   0.5563   0.2766  0.06703   1.2992E-03  7.4859E-04  1.4994E-03   29.950
   193    7  -0.0644   0.5236   0.2860  0.06703   1.3941E-03  3.3480E-04  1.4338E-03   13.504
   194    7   0.0000   0.5123   0.2953  0.06703   1.2357E-03 -7.3244E-05  1.2378E-03   -3.392
   195    7   0.0644   0.5236   0.3047  0.06703   8.6591E-04 -3.9698E-04  9.5257E-04  -24.629
   196    7   0.1210   0.5563   0.3141  0.06703   3.6456E-04 -5.8506E-04  6.8935E-04  -58.072
   197    7   0.1630   0.6064   0.3235  0.06703  -1.6992E-04 -6.2605E-04  6.4870E-04 -105.185
   198    7   0.1854   0.6678   0.3328  0.06703  -6.3916E-04 -5.4493E-04  8.3993E-04 -139.550
   199    8   0.1854   0.7331   0.3449  0.06800  -9.6273E-04 -3.8756E-04  1.0378E-03 -158.072
   200    8   0.1630   0.7946   0.3597  0.06800  -1.0860E-03 -2.0859E-04  1.1059E-03 -169.128
   201    8   0.1210   0.8446   0.3745  0.06800  -9.9435E-04 -6.0387E-05  9.9618E-04 -176.525
   202    8   0.0644   0.8773   0.3893  0.06800  -7.2053E-04  2.1076E-05  7.2084E-04  178.325
   203    8   0.0000   0.8887   0.4041  0.06800  -3.3342E-04  2.3238E-05  3.3422E-04  176.013
   204    8  -0.0644   0.8773   0.4189  0.06800   7.9886E-05 -4.0671E-05  8.9644E-05  -26.981
   205    8  -0.1210   0.8446   0.4337  0.06800   4.3610E-04 -1.3578E-04  4.5674E-04  -17.294
   206    8  -0.1630   0.7946   0.4484  0.06800   6.7400E-04 -2.1683E-04  7.0802E-04  -17.833
   207    8  -0.1854   0.7331   0.4632  0.06800   7.6297E-04 -2.4323E-04  8.0080E-04  -17.682
   208    8  -0.1854   0.6678   0.4780  0.06800   7.0286E-04 -1.9078E-04  7.2829E-04  -15.186
   209    8  -0.1630   0.6064   0.4928  0.06800   5.1956E-04 -5.6625E-05  5.2264E-04   -6.220
   210    8  -0.1210   0.5563   0.5076  0.06800   2.5930E-04  1.4125E-04  2.9528E-04   28.578
   211    8  -0.0644   0.5236   0.5224  0.06800  -1.8073E-05  3.6733E-04  3.6777E-04   92.817
   212    8   0.0000   0.5123   0.5372  0.06800  -2.4900E-04  5.7337E-04  6.2510E-04  113.474
   213    8   0.0644   0.5236   0.5520  0.06800  -3.8108E-04  7.0487E-04  8.0129E-04  118.398
   214    8   0.1210   0.5563   0.5668  0.06800  -3.8940E-04  7.1065E-04  8.1035E-04  118.721
   215    8   0.1630   0.6064   0.5815  0.06800  -2.8466E-04  5.5629E-04  6.2489E-04  117.099
   216    8   0.1854   0.6678   0.5963  0.06800  -1.0515E-04  2.3088E-04  2.5369E-04  114.485
   217    9   0.8858   0.7331   0.0047  0.06703   2.1299E-03 -1.3059E-03  2.4983E-03  -31.514
   218    9   0.8635   0.7946   0.0141  0.06703   1.8305E-03 -1.2495E-03  2.2163E-03  -34.318
   219    9   0.8214   0.8446   0.0234  0.06703   1.2730E-03 -1.8803E-03  2.2707E-03  -55.902
   220    9   0.7648   0.8773   0.0328  0.06703   5.4492E-04 -2.2983E-03  2.3620E-03  -76.662
   221    9   0.7005   0.8887   0.0422  0.06703  -2.3757E-04 -2.3136E-03  2.3258E-03  -95.863
   222    9   0.6361   0.8773   0.0516  0.06703  -9.4966E-04 -1.9500E-03  2.1689E-03 -115.966
   223    9   0.5795   0.8446   0.0609  0.06703  -1.4781E-03 -1.2836E-03  1.9577E-03 -139.029
   224    9   0.5375   0.7946   0.0703  0.06703  -1.7408E-03 -4.3287E-04  1.7938E-03 -166.036
   225    9   0.5151   0.7331   0.0797  0.06703  -1.7013E-03  4.6071E-04  1.7626E-03  164.847
   226    9   0.5151   0.6678   0.0891  0.06703  -1.3757E-03  1.2543E-03  1.8616E-03  137.643
   227    9   0.5375   0.6064   0.0984  0.06703  -8.2891E-04  1.8250E-03  2.0044E-03  114.427
   228    9   0.5795   0.5563   0.1078  0.06703  -1.6026E-04  2.0900E-03  2.0961E-03   94.385
   229    9   0.6361   0.5236   0.1172  0.06703   5.1557E-04  2.0191E-03  2.0839E-03   75.676
   230    9   0.7005   0.5123   0.1266  0.06703   1.0865E-03  1.6395E-03  1.9668E-03   56.467
   231    9   0.7648   0.5236   0.1359  0.06703   1.4595E-03  1.0283E-03  1.7854E-03   35.167
   232    9   0.8214   0.5563   0.1453  0.06703   1.5755E-03  2.9568E-04  1.6030E-03   10.629
   233    9   0.8635   0.6064   0.1547  0.06703   1.4199E-03 -4.3791E-04  1.4858E-03  -17.141
   234    9   0.8858   0.6678   0.1641  0.06703   1.0260E-03 -1.0608E-03  1.4758E-03  -45.957
   235    9   0.8858   0.7331   0.1734  0.06703   4.6985E-04 -1.4846E-03  1.5572E-03  -72.438
   236    9   0.8635   0.7946   0.1828  0.06703  -1.4492E-04 -1.6557E-03  1.6620E-03  -95.002
   237    9   0.8214   0.8446   0.1922  0.06703  -7.0997E-04 -1.5650E-03  1.7185E-03 -114.401
   238    9   0.7648   0.8773   0.2016  0.06703  -1.1325E-03 -1.2495E-03  1.6864E-03 -132.188
   239    9   0.7005   0.8887   0.2110  0.06703  -1.3485E-03 -7.8208E-04  1.5589E-03 -149.888
   240    9   0.6361   0.8773   0.2203  0.06703  -1.3293E-03 -2.5510E-04  1.3536E-03 -169.137
   241    9   0.5795   0.8446   0.2297  0.06703  -1.0848E-03  2.4022E-04  1.1111E-03  167.513
   242    9   0.5375   0.7946   0.2391  0.06703  -6.6154E-04  6.3229E-04  9.1511E-04  136.295
   243    9   0.5151   0.7331   0.2485  0.06703  -1.3679E-04  8.7840E-04  8.8899E-04   98.852
   244    9   0.5151   0.6678   0.2578  0.06703   3.9398E-04  9.6586E-04  1.0431E-03   67.809
   245    9   0.5375   0.6064   0.2672  0.06703   8.3560E-04  9.0861E-04  1.2344E-03   47.397
   246    9   0.5795   0.5563   0.2766  0.06703   1.1146E-03  7.4200E-04  1.3390E-03   33.653
   247    9   0.6361   0.5236   0.2860  0.06703   1.1926E-03  5.1542E-04  1.2992E-03   23.373
   248    9   0.7005   0.5123   0.2953  0.06703   1.0692E-03  2.8227E-04  1.1058E-03   14.789
   249    9   0.7648   0.5236   0.3047  0.06703   7.7706E-04  8.8345E-05  7.8206E-04    6.486
   250    9   0.8214   0.5563   0.3141  0.06703   3.7314E-04 -4.0082E-05  3.7528E-04   -6.131
   251    9   0.8635   0.6064   0.3235  0.06703  -7.1348E-05 -1.0236E-04  1.2477E-04 -124.879
   252    9   0.8858   0.6678   0.3328  0.06703  -4.8169E-04 -1.1913E-04  4.9620E-04 -166.108
   253   10   0.8858   0.7331   0.3449  0.06800  -7.9292E-04 -1.2113E-04  8.0212E-04 -171.315
[...]
  -42.00    45.00     -28.78  -30.52  -26.55    0.03631    39.30  RIGHT     2.83074E-02   176.97    2.31782E-02   172.72
  -40.00    45.00     -24.48  -31.80  -23.74    0.02068    23.28  RIGHT     4.64475E-02  -166.16    2.00070E-02  -169.42
  -38.00    45.00     -21.56  -43.45  -21.53    0.06976    -2.30  LEFT      6.50014E-02  -161.19    5.23308E-03   -41.40
  -36.00    45.00     -19.08  -23.63  -17.78    0.01525   -30.62  RIGHT     8.64855E-02  -162.86    5.12083E-02    19.13
  -34.00    45.00     -16.32  -15.55  -12.91    0.19027   -47.72  RIGHT     1.18818E-01  -167.81    1.29821E-01    33.82
  -32.00    45.00     -13.08  -10.05   -8.30    0.32104   -57.16  RIGHT     1.72634E-01  -171.70    2.44555E-01    46.45
  -30.00    45.00      -9.64   -5.79   -4.29    0.41003   -62.89  RIGHT     2.56614E-01  -171.93    3.99722E-01    58.61
  -28.00    45.00      -6.32   -2.28   -0.84    0.47360   -66.60  RIGHT     3.76081E-01  -168.51    5.98365E-01    70.66
  -26.00    45.00      -3.27    0.68    2.15    0.52177   -69.08  RIGHT     5.33942E-01  -162.35    8.41778E-01    82.70
  -24.00    45.00      -0.54    3.23    4.75    0.56003   -70.77  RIGHT     7.31168E-01  -154.33    1.12912E+00    94.81
  -22.00    45.00       1.88    5.45    7.03    0.59143   -71.91  RIGHT     9.66637E-01  -145.04    1.45711E+00   106.98
  -20.00    45.00       4.03    7.38    9.03    0.61774   -72.66  RIGHT     1.23686E+00  -134.87    1.81991E+00   119.23
  -18.00    45.00       5.91    9.06   10.78    0.64006   -73.14  RIGHT     1.53578E+00  -124.08    2.20909E+00   131.56
  -16.00    45.00       7.55   10.52   12.30    0.65904   -73.43  RIGHT     1.85484E+00  -112.84    2.61389E+00   143.95
  -14.00    45.00       8.96   11.78   13.61    0.67515   -73.57  RIGHT     2.18319E+00  -101.26    3.02158E+00   156.41
  -12.00    45.00      10.17   12.85   14.73    0.68867   -73.63  RIGHT     2.50822E+00   -89.43    3.41802E+00   168.91
  -10.00    45.00      11.17   13.75   15.66    0.69982   -73.64  RIGHT     2.81620E+00   -77.40    3.78845E+00  -178.55
   -8.00    45.00      11.99   14.47   16.42    0.70874   -73.63  RIGHT     3.09321E+00   -65.23    4.11822E+00  -165.99
   -6.00    45.00      12.62   15.04   17.00    0.71553   -73.62  RIGHT     3.32599E+00   -52.95    4.39375E+00  -153.41
   -4.00    45.00      13.07   15.44   17.42    0.72024   -73.64  RIGHT     3.50294E+00   -40.60    4.60332E+00  -140.84
   -2.00    45.00      13.34   15.69   17.68    0.72291   -73.69  RIGHT     3.61498E+00   -28.18    4.73782E+00  -128.28
    0.00    45.00      13.44   15.79   17.78    0.72355   -73.79  RIGHT     3.65621E+00   -15.73    4.79136E+00  -115.75
    2.00    45.00      13.36   15.73   17.72    0.72213   -73.93  RIGHT     3.62439E+00    -3.26    4.76164E+00  -103.26
    4.00    45.00      13.11   15.53   17.50    0.71862   -74.12  RIGHT     3.52112E+00     9.22    4.65012E+00   -90.82
    6.00    45.00      12.68   15.17   17.11    0.71294   -74.34  RIGHT     3.35173E+00    21.71    4.46187E+00   -78.45
    8.00    45.00      12.08   14.65   16.56    0.70500   -74.59  RIGHT     3.12483E+00    34.20    4.20528E+00   -66.16
   10.00    45.00      11.28   13.98   15.85    0.69468   -74.83  RIGHT     2.85171E+00    46.70    3.89147E+00   -53.95
   12.00    45.00      10.29   13.14   14.96    0.68184   -75.06  RIGHT     2.54548E+00    59.21    3.53355E+00   -41.85
   14.00    45.00       9.11   12.13   13.89    0.66628   -75.23  RIGHT     2.22014E+00    71.76    3.14588E+00   -29.86
   16.00    45.00       7.71   10.94   12.63    0.64778   -75.33  RIGHT     1.88963E+00    84.39    2.74311E+00   -17.99
   18.00    45.00       6.08    9.56   11.17    0.62601   -75.30  RIGHT     1.56693E+00    97.16    2.33946E+00    -6.25
   20.00    45.00       4.21    7.97    9.50    0.60058   -75.11  RIGHT     1.26339E+00   110.17    1.94789E+00     5.36
   22.00    45.00       2.07    6.15    7.58    0.57091   -74.69  RIGHT     9.88086E-01   123.56    1.57959E+00    16.83
   24.00    45.00      -0.35    4.07    5.41    0.53619   -73.97  RIGHT     7.47609E-01   137.58    1.24350E+00    28.16
   26.00    45.00      -3.08    1.70    2.95    0.49525   -72.83  RIGHT     5.45923E-01   152.61    9.46099E-01    39.35
   28.00    45.00      -6.12   -1.03    0.14    0.44630   -71.08  RIGHT     3.84522E-01   169.23    6.91318E-01    50.41
   30.00    45.00      -9.43   -4.18   -3.05    0.38668   -68.45  RIGHT     2.62661E-01  -171.70    4.80676E-01    61.37
   32.00    45.00     -12.84   -7.90   -6.69    0.31267   -64.39  RIGHT     1.77425E-01  -149.34    3.13515E-01    72.30
   34.00    45.00     -16.01  -12.37  -10.81    0.22062   -57.97  RIGHT     1.23135E-01  -123.94    1.87351E-01    83.34
   36.00    45.00     -18.69  -17.97  -15.31    0.11587   -47.44  RIGHT     9.04624E-02   -98.37    9.82950E-02    94.90
   38.00    45.00     -21.12  -25.46  -19.76    0.04089   -31.20  RIGHT     6.84006E-02   -76.92    4.15087E-02   108.36
   40.00    45.00     -23.98  -36.42  -23.74    0.05375   -13.10  RIGHT     4.92332E-02   -62.82    1.17532E-02   130.91
   42.00    45.00     -28.01  -47.16  -27.96    0.08861    -3.76  RIGHT     3.09296E-02   -61.07    3.41375E-03   172.67
   44.00    45.00     -32.34  -38.76  -31.44    0.31401   -20.00  RIGHT     1.88014E-02   -90.12    8.98046E-03   137.18
   46.00    45.00     -29.89  -29.35  -26.60    0.93940   -84.23  RIGHT     2.49320E-02  -131.82    2.65067E-02   137.46
   48.00    45.00     -25.97  -23.74  -21.71    0.67924    66.44  RIGHT     3.91357E-02  -141.58    5.05695E-02   144.62
   50.00    45.00     -23.52  -20.05  -18.43    0.56071    68.38  RIGHT     5.18835E-02  -140.15    7.74055E-02   152.58
   52.00    45.00     -22.14  -17.47  -16.20    0.48270    71.07  RIGHT     6.08240E-02  -135.49    1.04110E-01   160.51
   54.00    45.00     -21.52  -15.64  -14.64    0.42002    73.68  RIGHT     6.53124E-02  -129.63    1.28530E-01   168.23
   56.00    45.00     -21.51  -14.35  -13.58    0.36497    76.20  RIGHT     6.53791E-02  -123.14    1.49199E-01   175.69
   58.00    45.00     -22.05  -13.46  -12.90    0.31449    78.70  RIGHT     6.14557E-02  -116.00    1.65245E-01  -177.16
   60.00    45.00     -23.13  -12.90  -12.50    0.26717    81.29  RIGHT     5.42495E-02  -107.81    1.76293E-01  -170.32
   62.00    45.00     -24.81  -12.60  -12.35    0.22230    84.08  RIGHT     4.47130E-02   -97.48    1.82351E-01  -163.81
   64.00    45.00     -27.14  -12.54  -12.39    0.17958    87.18  RIGHT     3.42056E-02   -82.45    1.83704E-01  -157.63
   66.00    45.00     -29.78  -12.68  -12.59    0.13904   -89.31  RIGHT     2.52376E-02   -56.94    1.80825E-01  -151.82
   68.00    45.00     -30.69  -13.00  -12.92    0.10096   -85.28  RIGHT     2.27316E-02   -17.56    1.74284E-01  -146.37
   70.00    45.00     -28.50  -13.49  -13.35    0.06588   -80.63  RIGHT     2.92569E-02    16.30    1.64692E-01  -141.31
   72.00    45.00     -25.68  -14.15  -13.85    0.03467   -75.27  RIGHT     4.04657E-02    35.31    1.52643E-01  -136.65
   74.00    45.00     -23.36  -14.98  -14.39    0.00839   -69.14  RIGHT     5.28532E-02    46.14    1.38685E-01  -132.42
   76.00    45.00     -21.57  -16.00  -14.94    0.01185   -62.22  LEFT      6.49706E-02    53.02    1.23300E-01  -128.63
   78.00    45.00     -20.19  -17.24  -15.46    0.02522   -54.55  LEFT      7.61473E-02    57.76    1.06886E-01  -125.29
   80.00    45.00     -19.13  -18.76  -15.93    0.03158   -46.23  LEFT      8.60061E-02    61.18    8.97653E-02  -122.44
   82.00    45.00     -18.33  -20.65  -16.33    0.03165   -37.41  LEFT      9.43092E-02    63.68    7.21813E-02  -120.07
   84.00    45.00     -17.74  -23.12  -16.64    0.02693   -28.27  LEFT      1.00899E-01    65.48    5.43113E-02  -118.22
   86.00    45.00     -17.34  -26.63  -16.86    0.01918   -18.92  LEFT      1.05670E-01    66.69    3.62767E-02  -116.89
   88.00    45.00     -17.11  -32.64  -16.99    0.00988    -9.48  LEFT      1.08558E-01    67.40    1.81562E-02  -116.08
   90.00    45.00     -17.03 -999.99  -17.03    0.00000     0.00  LINEAR    1.09524E-01    67.63    2.65549E-12    64.19






 ***** DATA CARD NO. 15   RP   0    91     1  1000 -9.00000E+01  9.00000E+01  2.00000E+00  1.00000E+00  0.00000E+00  0.00000E+00



                                                - - - RADIATION PATTERNS - - -

  - - ANGLES - -           - POWER GAINS -       - - - POLARIZATION - - -    - - - E(THETA) - - -    - - - E(PHI) - - -
  THETA     PHI        VERT.   HOR.    TOTAL      AXIAL     TILT   SENSE     MAGNITUDE    PHASE      MAGNITUDE    PHASE 
 DEGREES  DEGREES       DB      DB      DB        RATIO     DEG.              VOLTS/M    DEGREES      VOLTS/M    DEGREES
  -90.00    90.00     -11.09 -999.99  -11.09    0.00000     0.00  LINEAR    2.16971E-01   169.64    3.99126E-12  -169.39
  -88.00    90.00     -11.19  -29.13  -11.12    0.04474    -6.76  RIGHT     2.14643E-01   169.84    2.72034E-02    10.82
  -86.00    90.00     -11.47  -23.19  -11.18    0.08761   -13.71  RIGHT     2.07852E-01   170.46    5.38726E-02    11.44
  -84.00    90.00     -11.92  -19.82  -11.27    0.12620   -20.97  RIGHT     1.97175E-01   171.50    7.94548E-02    12.49
  -82.00    90.00     -12.55  -17.53  -11.35    0.15755   -28.49  RIGHT     1.83541E-01   172.97    1.03364E-01    14.04
  -80.00    90.00     -13.30  -15.88  -11.40    0.17912   -36.04  RIGHT     1.68199E-01   174.90    1.24977E-01    16.16
  -78.00    90.00     -14.15  -14.68  -11.39    0.19051   -43.12  RIGHT     1.52663E-01   177.33    1.43639E-01    18.95
  -76.00    90.00     -14.98  -13.81  -11.35    0.19478   -49.17  RIGHT     1.38643E-01  -179.69    1.58703E-01    22.56
  -74.00    90.00     -15.68  -13.23  -11.28    0.19818   -53.64  RIGHT     1.27970E-01  -176.15    1.69603E-01    27.22
  -72.00    90.00     -16.06  -12.91  -11.20    0.20896   -56.13  RIGHT     1.22504E-01  -172.04    1.75992E-01    33.24
  -70.00    90.00     -15.95  -12.81  -11.09    0.23680   -56.40  RIGHT     1.24035E-01  -167.49    1.77991E-01    41.06
  -68.00    90.00     -15.27  -12.88  -10.90    0.29247   -54.28  RIGHT     1.34168E-01  -162.68    1.76618E-01    51.33
  -66.00    90.00     -14.06  -12.99  -10.48    0.38493   -49.75  RIGHT     1.54224E-01  -157.76    1.74431E-01    64.74
  -64.00    90.00     -12.47  -12.90   -9.67    0.51306   -42.56  RIGHT     1.85138E-01  -152.76    1.76182E-01    81.65
  -62.00    90.00     -10.69  -12.32   -8.42    0.65375   -31.20  RIGHT     2.27380E-01  -147.65    1.88402E-01   101.14
  -60.00    90.00      -8.85  -11.11   -6.82    0.75056   -12.33  RIGHT     2.80861E-01  -142.34    2.16666E-01   120.73
  -58.00    90.00      -7.07   -9.44   -5.08    0.75095     8.65  RIGHT     3.44857E-01  -136.78    2.62522E-01   138.15
  -56.00    90.00      -5.40   -7.62   -3.36    0.70281    21.19  RIGHT     4.17951E-01  -130.95    3.23669E-01   152.70
  -54.00    90.00      -3.88   -5.87   -1.75    0.65672    27.74  RIGHT     4.97990E-01  -124.82    3.96023E-01   164.82
  -52.00    90.00      -2.52   -4.29   -0.31    0.62296    31.46  RIGHT     5.82075E-01  -118.41    4.74915E-01   175.21
  -50.00    90.00      -1.34   -2.93    0.95    0.60033    33.70  RIGHT     6.66579E-01  -111.73    5.55323E-01  -175.54
  -48.00    90.00      -0.35   -1.81    1.99    0.58606    35.06  RIGHT     7.47197E-01  -104.79    6.31812E-01  -167.01
  -46.00    90.00       0.44   -0.94    2.82    0.57772    35.79  RIGHT     8.19039E-01   -97.62    6.98504E-01  -158.94
  -44.00    90.00       1.04   -0.33    3.42    0.57333    36.01  RIGHT     8.76758E-01   -90.24    7.49143E-01  -151.13
  -42.00    90.00       1.40   -0.01    3.77    0.57114    35.74  RIGHT     9.14729E-01   -82.67    7.77257E-01  -143.46
  -40.00    90.00       1.52   -0.02    3.83    0.56939    34.93  RIGHT     9.27259E-01   -74.96    7.76392E-01  -135.84
  -38.00    90.00       1.35   -0.43    3.56    0.56572    33.45  RIGHT     9.08847E-01   -67.14    7.40410E-01  -128.21
  -36.00    90.00       0.81   -1.38    2.86    0.55609    31.03  RIGHT     8.54473E-01   -59.28    6.63827E-01  -120.52
  -34.00    90.00      -0.21   -3.14    1.58    0.53173    27.21  RIGHT     7.59916E-01   -51.49    5.42159E-01  -112.74
  -32.00    90.00      -1.94   -6.40   -0.61    0.46902    21.17  RIGHT     6.22110E-01   -44.02    3.72274E-01  -104.78
  -30.00    90.00      -4.96  -14.14   -4.46    0.28568    11.23  RIGHT     4.39643E-01   -37.68    1.52715E-01   -96.12
  -28.00    90.00     -11.18  -16.52  -10.07    0.39092   -20.95  LEFT      2.14700E-01   -37.04    1.16197E-01    88.86
  -26.00    90.00     -18.97   -5.12   -4.94    0.18944   -85.82  RIGHT     8.76388E-02  -151.51    4.31662E-01    98.19
  -24.00    90.00      -6.15    0.12    1.04    0.46958    82.76  RIGHT     3.83188E-01  -175.14    7.89095E-01   106.58
  -22.00    90.00      -0.57    3.63    5.03    0.57182    76.18  RIGHT     7.28292E-01  -170.32    1.18156E+00   114.95
  -20.00    90.00       3.02    6.26    7.95    0.62182    71.92  RIGHT     1.10137E+00  -162.86    1.60012E+00   123.37
  -18.00    90.00       5.65    8.35   10.22    0.65148    69.01  RIGHT     1.49205E+00  -154.61    2.03409E+00   131.85
  -16.00    90.00       7.70   10.04   12.04    0.67148    66.94  RIGHT     1.88921E+00  -146.01    2.47143E+00   140.41
  -14.00    90.00       9.34   11.42   13.52    0.68612    65.43  RIGHT     2.28081E+00  -137.23    2.89916E+00   149.03
  -12.00    90.00      10.66   12.56   14.72    0.69733    64.28  RIGHT     2.65432E+00  -128.35    3.30395E+00   157.71
  -10.00    90.00      11.71   13.48   15.70    0.70606    63.40  RIGHT     2.99720E+00  -119.42    3.67270E+00   166.45
   -8.00    90.00      12.54   14.21   16.46    0.71280    62.71  RIGHT     3.29755E+00  -110.47    3.99312E+00   175.23
   -6.00    90.00      13.17   14.76   17.05    0.71782    62.17  RIGHT     3.54464E+00  -101.52    4.25434E+00  -175.94
   -4.00    90.00      13.61   15.14   17.45    0.72125    61.76  RIGHT     3.72952E+00   -92.59    4.44740E+00  -167.09
   -2.00    90.00      13.88   15.37   17.70    0.72316    61.44  RIGHT     3.84538E+00   -83.69    4.56569E+00  -158.21
    0.00    90.00      13.97   15.44   17.78    0.72355    61.21  RIGHT     3.88801E+00   -74.84    4.60525E+00  -149.31
    2.00    90.00      13.90   15.37   17.71    0.72240    61.08  RIGHT     3.85595E+00   -66.05    4.56498E+00  -140.39
    4.00    90.00      13.66   15.14   17.47    0.71964    61.03  RIGHT     3.75058E+00   -57.32    4.44665E+00  -131.47
    6.00    90.00      13.25   14.76   17.08    0.71516    61.08  RIGHT     3.57603E+00   -48.67    4.25480E+00  -122.54
    8.00    90.00      12.65   14.21   16.51    0.70881    61.24  RIGHT     3.33897E+00   -40.10    3.99650E+00  -113.61
   10.00    90.00      11.86   13.50   15.77    0.70035    61.52  RIGHT     3.04820E+00   -31.61    3.68098E+00  -104.66
   12.00    90.00      10.85   12.60   14.82    0.68939    61.96  RIGHT     2.71425E+00   -23.21    3.31915E+00   -95.68
   14.00    90.00       9.60   11.50   13.66    0.67534    62.60  RIGHT     2.34879E+00   -14.87    2.92309E+00   -86.66
   16.00    90.00       8.04   10.16   12.24    0.65722    63.50  RIGHT     1.96410E+00    -6.59    2.50552E+00   -77.55
   18.00    90.00       6.11    8.54   10.50    0.63327    64.78  RIGHT     1.57246E+00     1.69    2.07921E+00   -68.28
   20.00    90.00       3.66    6.56    8.36    0.60010    66.63  RIGHT     1.18570E+00    10.08    1.65652E+00   -58.70
   22.00    90.00       0.40    4.11    5.65    0.55040    69.45  RIGHT     8.14682E-01    18.87    1.24904E+00   -48.53
   24.00    90.00      -4.39    0.95    2.06    0.46562    74.12  RIGHT     4.69273E-01    29.12    8.67616E-01   -37.01
   26.00    90.00     -13.67   -3.44   -3.05    0.28809    83.79  RIGHT     1.61206E-01    49.32    5.23717E-01   -21.78
   28.00    90.00     -15.21  -10.15   -8.97    0.03221   -60.86  LEFT      1.35065E-01  -166.46    2.41904E-01     9.21
   30.00    90.00      -6.66  -12.80   -5.71    0.40331   -16.15  RIGHT     3.61628E-01  -144.55    1.78350E-01    96.43
   32.00    90.00      -3.02   -6.94   -1.54    0.63350     3.93  RIGHT     5.49825E-01  -134.76    3.50026E-01   138.94
   34.00    90.00      -0.99   -3.54    0.93    0.68951    18.31  RIGHT     6.94597E-01  -126.88    5.17932E-01   155.91
   36.00    90.00       0.21   -1.59    2.41    0.69017    27.50  RIGHT     7.96876E-01  -119.74    6.48311E-01   167.53
   38.00    90.00       0.86   -0.45    3.26    0.67478    33.15  RIGHT     8.59380E-01  -113.02    7.38503E-01   177.26
   40.00    90.00       1.13    0.14    3.67    0.65470    36.76  RIGHT     8.86024E-01  -106.61    7.90598E-01  -173.90
   42.00    90.00       1.08    0.33    3.73    0.63304    39.17  RIGHT     8.81569E-01  -100.43    8.08375E-01  -165.56
   44.00    90.00       0.78    0.20    3.51    0.61053    40.82  RIGHT     8.51304E-01   -94.45    7.96460E-01  -157.51
   46.00    90.00       0.25   -0.21    3.04    0.58712    41.92  RIGHT     8.00763E-01   -88.67    7.59892E-01  -149.64
   48.00    90.00      -0.49   -0.87    2.33    0.56233    42.58  RIGHT     7.35461E-01   -83.05    7.03846E-01  -141.85
   50.00    90.00      -1.42   -1.79    1.41    0.53530    42.82  RIGHT     6.60668E-01   -77.61    6.33412E-01  -134.01
   52.00    90.00      -2.53   -2.96    0.27    0.50455    42.64  RIGHT     5.81221E-01   -72.34    5.53457E-01  -125.98
   54.00    90.00      -3.82   -4.41   -1.09    0.46759    41.97  RIGHT     5.01377E-01   -67.26    4.68534E-01  -117.53
   56.00    90.00      -5.26   -6.16   -2.68    0.42016    40.76  RIGHT     4.24712E-01   -62.41    3.82880E-01  -108.30
   58.00    90.00      -6.84   -8.26   -4.48    0.35510    38.96  RIGHT     3.54065E-01   -57.88    3.00548E-01   -97.61
   60.00    90.00      -8.53  -10.75   -6.49    0.26110    36.67  RIGHT     2.91525E-01   -53.80    2.25798E-01   -84.13
   62.00    90.00     -10.27  -13.52   -8.59    0.12240    34.20  RIGHT     2.38469E-01   -50.42    1.64077E-01   -65.39
   64.00    90.00     -11.99  -15.98  -10.53    0.07811    32.11  LEFT      1.95656E-01   -48.08    1.23573E-01   -38.17
   66.00    90.00     -13.56  -16.82  -11.88    0.35058    31.31  LEFT      1.63355E-01   -47.14    1.12160E-01    -5.15
   68.00    90.00     -14.81  -15.96  -12.33    0.68436    34.35  LEFT      1.41463E-01   -47.86    1.23933E-01    22.25
   70.00    90.00     -15.58  -14.71  -12.11    0.90449   -88.17  LEFT      1.29506E-01   -49.98    1.43152E-01    40.39
   72.00    90.00     -15.78  -13.75  -11.64    0.70043   -66.07  LEFT      1.26468E-01   -52.72    1.59722E-01    52.37
   74.00    90.00     -15.49  -13.24  -11.21    0.58239   -60.50  LEFT      1.30722E-01   -55.15    1.69517E-01    60.79
   76.00    90.00     -14.88  -13.15  -10.92    0.51624   -54.93  LEFT      1.40245E-01   -56.72    1.71177E-01    67.03
   78.00    90.00     -14.13  -13.49  -10.79    0.47247   -48.30  LEFT      1.52982E-01   -57.42    1.64571E-01    71.81
   80.00    90.00     -13.36  -14.29  -10.79    0.43111   -40.56  LEFT      1.67064E-01   -57.50    1.50204E-01    75.52
   82.00    90.00     -12.67  -15.61  -10.89    0.37814   -32.11  LEFT      1.80878E-01   -57.22    1.28955E-01    78.36
   84.00    90.00     -12.11  -17.65  -11.04    0.30635   -23.55  LEFT      1.93074E-01   -56.81    1.01953E-01    80.48
   86.00    90.00     -11.69  -20.86  -11.19    0.21579   -15.31  LEFT      2.02575E-01   -56.43    7.04998E-02    81.95
   88.00    90.00     -11.43  -26.69  -11.31    0.11141    -7.52  LEFT      2.08596E-01   -56.17    3.60167E-02    82.81
   90.00    90.00     -11.35 -999.99  -11.35    0.00000     0.00  LINEAR    2.10657E-01   -56.08    5.30238E-12   -96.90






 ***** DATA CARD NO. 16   XQ   0     0     0     0  0.00000E+00  0.00000E+00  0.00000E+00  0.00000E+00  0.00000E+00  0.00000E+00
 ***** DATA CARD NO. 17   EN   0     0     0     0  0.00000E+00  0.00000E+00  0.00000E+00  0.00000E+00  0.00000E+00  0.00000E+00

 RUN TIME =   182.400
